@<TRIPOS>MOLECULE
GDU
 43 45 0 0 0
SMALL
GASTEIGER

@<TRIPOS>ATOM
      1 P          22.1521   70.8276   -2.5539 P.3     1  UNL1        0.2189
      2 O          21.5448   69.5975   -1.9993 O.2     1  UNL1       -0.5170
      3 O          23.5554   70.4641   -3.2551 O.3     1  UNL1       -0.4371
      4 O          21.1595   71.4728   -3.6426 O.3     1  UNL1       -0.3112
      5 C          20.1541   72.1820   -2.9168 C.3     1  UNL1        0.1811
      6 C          18.0209   71.2609   -5.6606 C.3     1  UNL1        0.2383
      7 C          18.0800   69.9928   -4.7711 C.3     1  UNL1        0.1895
      8 O          16.8635   69.2480   -4.8633 O.3     1  UNL1       -0.3779
      9 C          18.2519   70.5981   -3.3535 C.3     1  UNL1        0.1713
     10 C          18.8034   72.0120   -3.6147 C.3     1  UNL1        0.1764
     11 O          18.9668   72.1548   -5.0363 O.3     1  UNL1       -0.3308
     12 O          16.9926   70.6613   -2.6812 O.3     1  UNL1       -0.3794
     13 H          16.9651   68.4757   -4.2897 H       1  UNL1        0.2106
     14 H          16.6723   69.7527   -2.6004 H       1  UNL1        0.2105
     15 N          18.4308   70.9516   -7.0314 N.ar    1  UNL1       -0.2551
     16 C          17.5002   70.6472   -7.9531 C.ar    1  UNL1        0.3323
     17 N          17.8503   70.3624   -9.2213 N.ar    1  UNL1       -0.2743
     18 C          19.1467   70.3683   -9.5865 C.ar    1  UNL1        0.2626
     19 C          20.1383   70.6815   -8.6249 C.ar    1  UNL1        0.0795
     20 C          19.7594   70.9675   -7.3611 C.ar    1  UNL1        0.0869
     21 O          16.3267   70.6383   -7.6387 O.2     1  UNL1       -0.2464
     22 O          19.4649   70.1059  -10.7330 O.2     1  UNL1       -0.2670
     23 H          17.1650   70.1490   -9.8745 H       1  UNL1        0.1734
     24 O          22.4056   71.8830   -1.3647 O.3     1  UNL1       -0.2703
     25 P          22.3593   71.0531    0.0134 P.3     1  UNL1        0.2208
     26 O          21.0441   70.3881    0.1446 O.2     1  UNL1       -0.5170
     27 O          23.5244   69.9410    0.0093 O.3     1  UNL1       -0.4371
     28 O          22.5807   72.0558    1.2526 O.3     1  UNL1       -0.2858
     29 C          21.2895   72.3380    1.7939 C.3     1  UNL1        0.2704
     30 C          20.8108   73.6989    1.2859 C.3     1  UNL1        0.1967
     31 C          21.8200   74.7715    1.7071 C.3     1  UNL1        0.1715
     32 C          22.0305   74.6781    3.2226 C.3     1  UNL1        0.1694
     33 C          22.4190   73.2423    3.5836 C.3     1  UNL1        0.1761
     34 O          20.7085   73.6690   -0.1388 O.3     1  UNL1       -0.3775
     35 O          21.3152   76.0650    1.3689 O.3     1  UNL1       -0.3794
     36 O          20.8224   75.0350    3.8957 O.3     1  UNL1       -0.3794
     37 O          21.3657   72.3521    3.2175 O.3     1  UNL1       -0.3258
     38 H          20.0699   72.9768   -0.3582 H       1  UNL1        0.2106
     39 H          21.1871   76.0740    0.4119 H       1  UNL1        0.2105
     40 H          20.6140   75.9416    3.6348 H       1  UNL1        0.2105
     41 C          22.6651   73.1460    5.0910 C.3     1  UNL1        0.1693
     42 O          21.4178   72.9760    5.7665 O.3     1  UNL1       -0.3794
     43 H          21.6166   72.9191    6.7112 H       1  UNL1        0.2105
@<TRIPOS>BOND
     1    15    16   ar
     2    15    20   ar
     3    15     6    1
     4    16    17   ar
     5    16    21    2
     6    17    18   ar
     7    17    23    1
     8    18    19   ar
     9    18    22    2
    10    19    20   ar
    11     6     7    1
    12     6    11    1
    13     7     8    1
    14     7     9    1
    15     8    13    1
    16     9    10    1
    17     9    12    1
    18    10    11    1
    19    10     5    1
    20    12    14    1
    21     5     4    1
    22     4     1    1
    23     1     2    2
    24     1     3    1
    25     1    24    1
    26    24    25    1
    27    25    26    2
    28    25    27    1
    29    25    28    1
    30    28    29    1
    31    29    30    1
    32    29    37    1
    33    30    31    1
    34    30    34    1
    35    31    32    1
    36    31    35    1
    37    32    33    1
    38    32    36    1
    39    33    41    1
    40    33    37    1
    41    41    42    1
    42    34    38    1
    43    35    39    1
    44    36    40    1
    45    42    43    1
@<TRIPOS>MOLECULE
GDU
 43 45 0 0 0
SMALL
GASTEIGER

@<TRIPOS>ATOM
      1 P          22.1165   70.9483   -2.5230 P.3     1  UNL1        0.2189
      2 O          21.5180   69.6252   -2.2387 O.2     1  UNL1       -0.5170
      3 O          23.5461   70.7483   -3.2367 O.3     1  UNL1       -0.4371
      4 O          21.1428   71.7803   -3.4959 O.3     1  UNL1       -0.3112
      5 C          20.1362   72.3678   -2.6700 C.3     1  UNL1        0.1811
      6 C          17.9182   71.3835   -5.3232 C.3     1  UNL1        0.2383
      7 C          18.0378   70.1234   -4.4283 C.3     1  UNL1        0.1895
      8 O          16.8342   69.3533   -4.4686 O.3     1  UNL1       -0.3779
      9 C          18.2517   70.7423   -3.0225 C.3     1  UNL1        0.1713
     10 C          18.7634   72.1653   -3.3140 C.3     1  UNL1        0.1764
     11 O          18.8688   72.3010   -4.7418 O.3     1  UNL1       -0.3308
     12 O          17.0182   70.7848   -2.3024 O.3     1  UNL1       -0.3794
     13 H          16.9739   68.5874   -3.8943 H       1  UNL1        0.2106
     14 H          16.7201   69.8704   -2.2033 H       1  UNL1        0.2105
     15 N          18.2813   71.0726   -6.7068 N.ar    1  UNL1       -0.2551
     16 C          17.3231   70.7362   -7.5882 C.ar    1  UNL1        0.3323
     17 N          17.6297   70.4491   -8.8670 N.ar    1  UNL1       -0.2743
     18 C          18.9101   70.4851   -9.2838 C.ar    1  UNL1        0.2626
     19 C          19.9306   70.8322   -8.3650 C.ar    1  UNL1        0.0795
     20 C          19.5949   71.1196   -7.0894 C.ar    1  UNL1        0.0869
     21 O          16.1636   70.7000   -7.2270 O.2     1  UNL1       -0.2464
     22 O          19.1891   70.2208  -10.4400 O.2     1  UNL1       -0.2670
     23 H          16.9249   70.2125   -9.4907 H       1  UNL1        0.1734
     24 O          22.3150   71.7541   -1.1433 O.3     1  UNL1       -0.2703
     25 P          21.9200   70.7456    0.0471 P.3     1  UNL1        0.2208
     26 O          20.9744   69.7280   -0.4623 O.2     1  UNL1       -0.5170
     27 O          23.2475   70.0170    0.5956 O.3     1  UNL1       -0.4371
     28 O          21.2288   71.5706    1.2436 O.3     1  UNL1       -0.2858
     29 C          22.2162   72.4676    1.7537 C.3     1  UNL1        0.2704
     30 C          22.0263   72.6292    3.2627 C.3     1  UNL1        0.1967
     31 C          20.6172   73.1654    3.5333 C.3     1  UNL1        0.1715
     32 C          20.4120   74.4418    2.7097 C.3     1  UNL1        0.1694
     33 C          20.7227   74.1419    1.2411 C.3     1  UNL1        0.1761
     34 O          22.1896   71.3630    3.9040 O.3     1  UNL1       -0.3775
     35 O          20.4748   73.4607    4.9244 O.3     1  UNL1       -0.3794
     36 O          21.2858   75.4651    3.1885 O.3     1  UNL1       -0.3794
     37 O          22.0835   73.7332    1.1108 O.3     1  UNL1       -0.3258
     38 H          23.0855   71.0611    3.7012 H       1  UNL1        0.2106
     39 H          20.6233   72.6350    5.4023 H       1  UNL1        0.2105
     40 H          21.0585   75.6162    4.1152 H       1  UNL1        0.2105
     41 C          20.4877   75.4015    0.4043 C.3     1  UNL1        0.1693
     42 O          21.5660   75.5676   -0.5179 O.3     1  UNL1       -0.3794
     43 H          21.3796   76.3697   -1.0250 H       1  UNL1        0.2105
@<TRIPOS>BOND
     1    15    16   ar
     2    15    20   ar
     3    15     6    1
     4    16    17   ar
     5    16    21    2
     6    17    18   ar
     7    17    23    1
     8    18    19   ar
     9    18    22    2
    10    19    20   ar
    11     6     7    1
    12     6    11    1
    13     7     8    1
    14     7     9    1
    15     8    13    1
    16     9    10    1
    17     9    12    1
    18    10    11    1
    19    10     5    1
    20    12    14    1
    21     5     4    1
    22     4     1    1
    23     1     2    2
    24     1     3    1
    25     1    24    1
    26    24    25    1
    27    25    26    2
    28    25    27    1
    29    25    28    1
    30    28    29    1
    31    29    30    1
    32    29    37    1
    33    30    31    1
    34    30    34    1
    35    31    32    1
    36    31    35    1
    37    32    33    1
    38    32    36    1
    39    33    41    1
    40    33    37    1
    41    41    42    1
    42    34    38    1
    43    35    39    1
    44    36    40    1
    45    42    43    1
@<TRIPOS>MOLECULE
GDU
 43 45 0 0 0
SMALL
GASTEIGER

@<TRIPOS>ATOM
      1 P          22.4424   71.6142   -2.5317 P.3     1  UNL1        0.2189
      2 O          22.1035   71.0167   -1.2211 O.2     1  UNL1       -0.5170
      3 O          23.5395   70.6970   -3.2721 O.3     1  UNL1       -0.4371
      4 O          21.1177   71.7045   -3.4395 O.3     1  UNL1       -0.3112
      5 C          20.1177   72.3492   -2.6491 C.3     1  UNL1        0.1811
      6 C          17.9095   71.3862   -5.3182 C.3     1  UNL1        0.2383
      7 C          18.0119   70.1245   -4.4235 C.3     1  UNL1        0.1895
      8 O          16.8020   69.3650   -4.4726 O.3     1  UNL1       -0.3779
      9 C          18.2215   70.7405   -3.0157 C.3     1  UNL1        0.1713
     10 C          18.7476   72.1591   -3.3026 C.3     1  UNL1        0.1764
     11 O          18.8641   72.2950   -4.7296 O.3     1  UNL1       -0.3308
     12 O          16.9835   70.7933   -2.3041 O.3     1  UNL1       -0.3794
     13 H          16.9310   68.5975   -3.8979 H       1  UNL1        0.2106
     14 H          16.6767   69.8815   -2.2078 H       1  UNL1        0.2105
     15 N          18.2794   71.0731   -6.6995 N.ar    1  UNL1       -0.2551
     16 C          17.3233   70.7557   -7.5902 C.ar    1  UNL1        0.3323
     17 N          17.6363   70.4672   -8.8672 N.ar    1  UNL1       -0.2743
     18 C          18.9206   70.4823   -9.2726 C.ar    1  UNL1        0.2626
     19 C          19.9389   70.8092   -8.3439 C.ar    1  UNL1        0.0795
     20 C          19.5969   71.0986   -7.0704 C.ar    1  UNL1        0.0869
     21 O          16.1603   70.7384   -7.2394 O.2     1  UNL1       -0.2464
     22 O          19.2053   70.2166  -10.4271 O.2     1  UNL1       -0.2670
     23 H          16.9330   70.2445   -9.4977 H       1  UNL1        0.1734
     24 O          23.0428   73.0913   -2.3079 O.3     1  UNL1       -0.2703
     25 P          23.4311   73.6624   -3.7615 P.3     1  UNL1        0.2208
     26 O          23.2611   72.5952   -4.7721 O.2     1  UNL1       -0.5170
     27 O          22.4700   74.9028   -4.1248 O.3     1  UNL1       -0.4371
     28 O          24.9628   74.1563   -3.7536 O.3     1  UNL1       -0.2858
     29 C          24.9386   75.5824   -3.6791 C.3     1  UNL1        0.2704
     30 C          26.2251   76.1458   -4.2847 C.3     1  UNL1        0.1967
     31 C          27.4254   75.5844   -3.5163 C.3     1  UNL1        0.1715
     32 C          27.2281   75.8692   -2.0232 C.3     1  UNL1        0.1694
     33 C          25.8653   75.3245   -1.5884 C.3     1  UNL1        0.1761
     34 O          26.3140   75.7650   -5.6589 O.3     1  UNL1       -0.3775
     35 O          28.6247   76.2133   -3.9732 O.3     1  UNL1       -0.3794
     36 O          27.2801   77.2781   -1.7945 O.3     1  UNL1       -0.3794
     37 O          24.8294   75.9835   -2.3154 O.3     1  UNL1       -0.3258
     38 H          25.5368   76.1328   -6.1011 H       1  UNL1        0.2106
     39 H          28.7014   76.0182   -4.9157 H       1  UNL1        0.2105
     40 H          28.1507   77.5773   -2.0874 H       1  UNL1        0.2105
     41 C          25.6728   75.5734   -0.0907 C.3     1  UNL1        0.1693
     42 O          24.5042   74.8857    0.3592 O.3     1  UNL1       -0.3794
     43 H          24.4194   75.0672    1.3053 H       1  UNL1        0.2105
@<TRIPOS>BOND
     1    15    16   ar
     2    15    20   ar
     3    15     6    1
     4    16    17   ar
     5    16    21    2
     6    17    18   ar
     7    17    23    1
     8    18    19   ar
     9    18    22    2
    10    19    20   ar
    11     6     7    1
    12     6    11    1
    13     7     8    1
    14     7     9    1
    15     8    13    1
    16     9    10    1
    17     9    12    1
    18    10    11    1
    19    10     5    1
    20    12    14    1
    21     5     4    1
    22     4     1    1
    23     1     2    2
    24     1     3    1
    25     1    24    1
    26    24    25    1
    27    25    26    2
    28    25    27    1
    29    25    28    1
    30    28    29    1
    31    29    30    1
    32    29    37    1
    33    30    31    1
    34    30    34    1
    35    31    32    1
    36    31    35    1
    37    32    33    1
    38    32    36    1
    39    33    41    1
    40    33    37    1
    41    41    42    1
    42    34    38    1
    43    35    39    1
    44    36    40    1
    45    42    43    1
@<TRIPOS>MOLECULE
GDU
 43 45 0 0 0
SMALL
GASTEIGER

@<TRIPOS>ATOM
      1 P          21.9535   70.3756   -0.3269 P.3     1  UNL1        0.2189
      2 O          21.2638   70.9086    0.8688 O.2     1  UNL1       -0.5170
      3 O          23.0264   69.2627    0.1240 O.3     1  UNL1       -0.4371
      4 O          20.8747   69.7106   -1.3173 O.3     1  UNL1       -0.3112
      5 C          21.0494   70.3276   -2.5938 C.3     1  UNL1        0.1811
      6 C          18.5184   70.9672   -5.0661 C.3     1  UNL1        0.2383
      7 C          18.0880   69.6329   -4.4048 C.3     1  UNL1        0.1895
      8 O          16.6652   69.4952   -4.4134 O.3     1  UNL1       -0.3779
      9 C          18.6185   69.8018   -2.9573 C.3     1  UNL1        0.1713
     10 C          19.7096   70.8813   -3.0822 C.3     1  UNL1        0.1764
     11 O          19.8059   71.2377   -4.4721 O.3     1  UNL1       -0.3308
     12 O          17.5709   70.2379   -2.0889 O.3     1  UNL1       -0.3794
     13 H          16.4645   68.6488   -3.9902 H       1  UNL1        0.2106
     14 H          16.8934   69.5482   -2.0990 H       1  UNL1        0.2105
     15 N          18.6422   70.8103   -6.5163 N.ar    1  UNL1       -0.2551
     16 C          17.5364   70.7844   -7.2810 C.ar    1  UNL1        0.3323
     17 N          17.6227   70.6447   -8.6170 N.ar    1  UNL1       -0.2743
     18 C          18.8248   70.5181   -9.2112 C.ar    1  UNL1        0.2626
     19 C          19.9979   70.5379   -8.4177 C.ar    1  UNL1        0.0795
     20 C          19.8830   70.6835   -7.0805 C.ar    1  UNL1        0.0869
     21 O          16.4451   70.8979   -6.7593 O.2     1  UNL1       -0.2464
     22 O          18.9037   70.3869  -10.4200 O.2     1  UNL1       -0.2670
     23 H          16.8144   70.6324   -9.1539 H       1  UNL1        0.1734
     24 O          22.7134   71.5749   -1.0863 O.3     1  UNL1       -0.2703
     25 P          22.1301   72.9501   -0.4873 P.3     1  UNL1        0.2208
     26 O          20.6642   72.8343   -0.3243 O.2     1  UNL1       -0.5170
     27 O          22.8075   73.2414    0.9446 O.3     1  UNL1       -0.4371
     28 O          22.4652   74.1600   -1.4942 O.3     1  UNL1       -0.2858
     29 C          23.6467   73.7916   -2.2070 C.3     1  UNL1        0.2704
     30 C          24.6082   74.9804   -2.2480 C.3     1  UNL1        0.1967
     31 C          23.9114   76.1619   -2.9299 C.3     1  UNL1        0.1715
     32 C          23.3863   75.7003   -4.2940 C.3     1  UNL1        0.1694
     33 C          22.5152   74.4571   -4.0974 C.3     1  UNL1        0.1761
     34 O          24.9769   75.3438   -0.9165 O.3     1  UNL1       -0.3775
     35 O          24.8430   77.2309   -3.1080 O.3     1  UNL1       -0.3794
     36 O          24.4870   75.3880   -5.1490 O.3     1  UNL1       -0.3794
     37 O          23.2977   73.4052   -3.5343 O.3     1  UNL1       -0.3258
     38 H          25.4043   74.5702   -0.5243 H       1  UNL1        0.2106
     39 H          25.1548   77.4798   -2.2288 H       1  UNL1        0.2105
     40 H          25.0092   76.1957   -5.2393 H       1  UNL1        0.2105
     41 C          21.9577   74.0080   -5.4499 C.3     1  UNL1        0.1693
     42 O          22.7815   72.9694   -5.9826 O.3     1  UNL1       -0.3794
     43 H          22.3964   72.7148   -6.8324 H       1  UNL1        0.2105
@<TRIPOS>BOND
     1    15    16   ar
     2    15    20   ar
     3    15     6    1
     4    16    17   ar
     5    16    21    2
     6    17    18   ar
     7    17    23    1
     8    18    19   ar
     9    18    22    2
    10    19    20   ar
    11     6     7    1
    12     6    11    1
    13     7     8    1
    14     7     9    1
    15     8    13    1
    16     9    10    1
    17     9    12    1
    18    10    11    1
    19    10     5    1
    20    12    14    1
    21     5     4    1
    22     4     1    1
    23     1     2    2
    24     1     3    1
    25     1    24    1
    26    24    25    1
    27    25    26    2
    28    25    27    1
    29    25    28    1
    30    28    29    1
    31    29    30    1
    32    29    37    1
    33    30    31    1
    34    30    34    1
    35    31    32    1
    36    31    35    1
    37    32    33    1
    38    32    36    1
    39    33    41    1
    40    33    37    1
    41    41    42    1
    42    34    38    1
    43    35    39    1
    44    36    40    1
    45    42    43    1
@<TRIPOS>MOLECULE
GDU
 43 45 0 0 0
SMALL
GASTEIGER

@<TRIPOS>ATOM
      1 P          20.4789   70.1473   -1.9574 P.3     1  UNL1        0.2189
      2 O          21.5456   69.3910   -2.6500 O.2     1  UNL1       -0.5170
      3 O          20.4534   71.6617   -2.5040 O.3     1  UNL1       -0.4371
      4 O          19.0569   69.4509   -2.2396 O.3     1  UNL1       -0.3112
      5 C          19.0804   68.9959   -3.5935 C.3     1  UNL1        0.1811
      6 C          16.5489   71.4890   -4.1444 C.3     1  UNL1        0.2383
      7 C          17.7950   72.0279   -4.8925 C.3     1  UNL1        0.1895
      8 O          17.4110   72.8042   -6.0296 O.3     1  UNL1       -0.3779
      9 C          18.5026   70.7189   -5.3299 C.3     1  UNL1        0.1713
     10 C          17.9393   69.6514   -4.3735 C.3     1  UNL1        0.1764
     11 O          17.0451   70.3164   -3.4645 O.3     1  UNL1       -0.3308
     12 O          18.1797   70.4056   -6.6862 O.3     1  UNL1       -0.3794
     13 H          18.2282   73.1085   -6.4484 H       1  UNL1        0.2106
     14 H          18.5052   71.1373   -7.2278 H       1  UNL1        0.2105
     15 N          16.0571   72.4747   -3.1804 N.ar    1  UNL1       -0.2551
     16 C          14.9991   73.2435   -3.4936 C.ar    1  UNL1        0.3323
     17 N          14.5249   74.1549   -2.6239 N.ar    1  UNL1       -0.2743
     18 C          15.1124   74.3189   -1.4230 C.ar    1  UNL1        0.2626
     19 C          16.2312   73.5201   -1.0817 C.ar    1  UNL1        0.0795
     20 C          16.6837   72.6107   -1.9709 C.ar    1  UNL1        0.0869
     21 O          14.4585   73.1067   -4.5730 O.2     1  UNL1       -0.2464
     22 O          14.6869   75.1469   -0.6370 O.2     1  UNL1       -0.2670
     23 H          13.7578   74.6982   -2.8649 H       1  UNL1        0.1734
     24 O          20.7694   70.1547   -0.3737 O.3     1  UNL1       -0.2703
     25 P          22.3448   70.4271   -0.1895 P.3     1  UNL1        0.2208
     26 O          22.9989   69.2060    0.3302 O.2     1  UNL1       -0.5170
     27 O          22.9915   70.8177   -1.6120 O.3     1  UNL1       -0.4371
     28 O          22.5634   71.6375    0.8484 O.3     1  UNL1       -0.2858
     29 C          21.4342   72.5025    0.7210 C.3     1  UNL1        0.2704
     30 C          21.8705   73.8170    0.0720 C.3     1  UNL1        0.1967
     31 C          22.9537   74.4658    0.9393 C.3     1  UNL1        0.1715
     32 C          22.4247   74.5900    2.3726 C.3     1  UNL1        0.1694
     33 C          21.9479   73.2154    2.8481 C.3     1  UNL1        0.1761
     34 O          22.3918   73.5569   -1.2325 O.3     1  UNL1       -0.3775
     35 O          23.2666   75.7626    0.4264 O.3     1  UNL1       -0.3794
     36 O          21.3367   75.5149    2.4019 O.3     1  UNL1       -0.3794
     37 O          20.8858   72.7586    2.0118 O.3     1  UNL1       -0.3258
     38 H          21.6803   73.1433   -1.7399 H       1  UNL1        0.2106
     39 H          23.5827   75.6373   -0.4773 H       1  UNL1        0.2105
     40 H          21.6810   76.3620    2.0902 H       1  UNL1        0.2105
     41 C          21.4491   73.3214    4.2910 C.3     1  UNL1        0.1693
     42 O          22.0512   72.2931    5.0790 O.3     1  UNL1       -0.3794
     43 H          21.7121   72.3953    5.9789 H       1  UNL1        0.2105
@<TRIPOS>BOND
     1    15    16   ar
     2    15    20   ar
     3    15     6    1
     4    16    17   ar
     5    16    21    2
     6    17    18   ar
     7    17    23    1
     8    18    19   ar
     9    18    22    2
    10    19    20   ar
    11     6     7    1
    12     6    11    1
    13     7     8    1
    14     7     9    1
    15     8    13    1
    16     9    10    1
    17     9    12    1
    18    10    11    1
    19    10     5    1
    20    12    14    1
    21     5     4    1
    22     4     1    1
    23     1     2    2
    24     1     3    1
    25     1    24    1
    26    24    25    1
    27    25    26    2
    28    25    27    1
    29    25    28    1
    30    28    29    1
    31    29    30    1
    32    29    37    1
    33    30    31    1
    34    30    34    1
    35    31    32    1
    36    31    35    1
    37    32    33    1
    38    32    36    1
    39    33    41    1
    40    33    37    1
    41    41    42    1
    42    34    38    1
    43    35    39    1
    44    36    40    1
    45    42    43    1
@<TRIPOS>MOLECULE
GDU
 43 45 0 0 0
SMALL
GASTEIGER

@<TRIPOS>ATOM
      1 P          21.5675   70.6853   -0.7762 P.3     1  UNL1        0.2189
      2 O          21.4619   69.4303   -1.5531 O.2     1  UNL1       -0.5170
      3 O          23.0410   71.3080   -0.9605 O.3     1  UNL1       -0.4371
      4 O          20.4707   71.7370   -1.3032 O.3     1  UNL1       -0.3112
      5 C          20.5514   71.7394   -2.7294 C.3     1  UNL1        0.1811
      6 C          18.1296   71.2064   -5.3329 C.3     1  UNL1        0.2383
      7 C          18.1225   69.8872   -4.5189 C.3     1  UNL1        0.1895
      8 O          16.8307   69.2761   -4.5496 O.3     1  UNL1       -0.3779
      9 C          18.4650   70.3850   -3.0905 C.3     1  UNL1        0.1713
     10 C          19.1410   71.7493   -3.3217 C.3     1  UNL1        0.1764
     11 O          19.2095   71.9607   -4.7426 O.3     1  UNL1       -0.3308
     12 O          17.2744   70.5343   -2.3146 O.3     1  UNL1       -0.3794
     13 H          16.8938   68.4641   -4.0275 H       1  UNL1        0.2106
     14 H          16.8671   69.6594   -2.2554 H       1  UNL1        0.2105
     15 N          18.3988   70.9409   -6.7471 N.ar    1  UNL1       -0.2551
     16 C          17.3740   70.7497   -7.5965 C.ar    1  UNL1        0.3323
     17 N          17.5940   70.5074   -8.9022 N.ar    1  UNL1       -0.2743
     18 C          18.8520   70.4426   -9.3792 C.ar    1  UNL1        0.2626
     19 C          19.9414   70.6362   -8.4950 C.ar    1  UNL1        0.0795
     20 C          19.6924   70.8818   -7.1911 C.ar    1  UNL1        0.0869
     21 O          16.2337   70.8058   -7.1810 O.2     1  UNL1       -0.2464
     22 O          19.0523   70.2186  -10.5599 O.2     1  UNL1       -0.2670
     23 H          16.8424   70.3761   -9.5018 H       1  UNL1        0.1734
     24 O          21.3090   70.3739    0.7822 O.3     1  UNL1       -0.2703
     25 P          21.8258   71.6560    1.6062 P.3     1  UNL1        0.2208
     26 O          20.8709   71.9604    2.6945 O.2     1  UNL1       -0.5170
     27 O          23.2741   71.3405    2.2364 O.3     1  UNL1       -0.4371
     28 O          21.9362   72.9216    0.6181 O.3     1  UNL1       -0.2858
     29 C          22.1702   74.0681    1.4369 C.3     1  UNL1        0.2704
     30 C          21.1144   75.1329    1.1357 C.3     1  UNL1        0.1967
     31 C          21.1895   75.5038   -0.3486 C.3     1  UNL1        0.1715
     32 C          22.6316   75.9027   -0.6817 C.3     1  UNL1        0.1694
     33 C          23.5728   74.7777   -0.2441 C.3     1  UNL1        0.1761
     34 O          19.8161   74.6182    1.4369 O.3     1  UNL1       -0.3775
     35 O          20.3120   76.6001   -0.6145 O.3     1  UNL1       -0.3794
     36 O          22.9657   77.1075    0.0089 O.3     1  UNL1       -0.3794
     37 O          23.4707   74.5858    1.1661 O.3     1  UNL1       -0.3258
     38 H          19.8168   74.3919    2.3769 H       1  UNL1        0.2106
     39 H          19.4216   76.3091   -0.3802 H       1  UNL1        0.2105
     40 H          22.3457   77.7841   -0.2928 H       1  UNL1        0.2105
     41 C          25.0128   75.1511   -0.6035 C.3     1  UNL1        0.1693
     42 O          25.0133   75.9736   -1.7716 O.3     1  UNL1       -0.3794
     43 H          25.9369   76.1868   -1.9633 H       1  UNL1        0.2105
@<TRIPOS>BOND
     1    15    16   ar
     2    15    20   ar
     3    15     6    1
     4    16    17   ar
     5    16    21    2
     6    17    18   ar
     7    17    23    1
     8    18    19   ar
     9    18    22    2
    10    19    20   ar
    11     6     7    1
    12     6    11    1
    13     7     8    1
    14     7     9    1
    15     8    13    1
    16     9    10    1
    17     9    12    1
    18    10    11    1
    19    10     5    1
    20    12    14    1
    21     5     4    1
    22     4     1    1
    23     1     2    2
    24     1     3    1
    25     1    24    1
    26    24    25    1
    27    25    26    2
    28    25    27    1
    29    25    28    1
    30    28    29    1
    31    29    30    1
    32    29    37    1
    33    30    31    1
    34    30    34    1
    35    31    32    1
    36    31    35    1
    37    32    33    1
    38    32    36    1
    39    33    41    1
    40    33    37    1
    41    41    42    1
    42    34    38    1
    43    35    39    1
    44    36    40    1
    45    42    43    1
@<TRIPOS>MOLECULE
GDU
 43 45 0 0 0
SMALL
GASTEIGER

@<TRIPOS>ATOM
      1 P          22.0652   73.9554   -6.5425 P.3     1  UNL1        0.2189
      2 O          22.7667   72.6971   -6.8804 O.2     1  UNL1       -0.5170
      3 O          23.1376   75.1499   -6.4145 O.3     1  UNL1       -0.4371
      4 O          21.0058   74.3073   -7.7004 O.3     1  UNL1       -0.3112
      5 C          21.1416   73.3010   -8.7051 C.3     1  UNL1        0.1811
      6 C          18.5052   71.2742   -7.3381 C.3     1  UNL1        0.2383
      7 C          17.9549   72.7221   -7.2760 C.3     1  UNL1        0.1895
      8 O          16.5325   72.7335   -7.4170 O.3     1  UNL1       -0.3779
      9 C          18.6376   73.3819   -8.5024 C.3     1  UNL1        0.1713
     10 C          19.8534   72.4797   -8.7843 C.3     1  UNL1        0.1764
     11 O          19.8680   71.4504   -7.7801 O.3     1  UNL1       -0.3308
     12 O          17.7481   73.3980   -9.6206 O.3     1  UNL1       -0.3794
     13 H          16.2550   73.6590   -7.3696 H       1  UNL1        0.2106
     14 H          16.9822   73.9282   -9.3617 H       1  UNL1        0.2105
     15 N          18.4689   70.6491   -6.0149 N.ar    1  UNL1       -0.2551
     16 C          17.3858   69.9465   -5.6388 C.ar    1  UNL1        0.3323
     17 N          17.3284   69.3590   -4.4291 N.ar    1  UNL1       -0.2743
     18 C          18.3572   69.4747   -3.5675 C.ar    1  UNL1        0.2626
     19 C          19.5023   70.2166   -3.9478 C.ar    1  UNL1        0.0795
     20 C          19.5354   70.7921   -5.1686 C.ar    1  UNL1        0.0869
     21 O          16.4501   69.8330   -6.4054 O.2     1  UNL1       -0.2464
     22 O          18.3043   68.9472   -2.4705 O.2     1  UNL1       -0.2670
     23 H          16.5406   68.8520   -4.1759 H       1  UNL1        0.1734
     24 O          21.2918   73.7780   -5.1415 O.3     1  UNL1       -0.2703
     25 P          22.4185   73.6328   -4.0016 P.3     1  UNL1        0.2208
     26 O          23.4828   72.7200   -4.4738 O.2     1  UNL1       -0.5170
     27 O          23.0533   75.0794   -3.6875 O.3     1  UNL1       -0.4371
     28 O          21.7546   73.0372   -2.6620 O.3     1  UNL1       -0.2858
     29 C          22.8275   72.6976   -1.7827 C.3     1  UNL1        0.2704
     30 C          22.6814   71.2409   -1.3400 C.3     1  UNL1        0.1967
     31 C          21.3310   71.0662   -0.6383 C.3     1  UNL1        0.1715
     32 C          21.2249   72.1032    0.4855 C.3     1  UNL1        0.1694
     33 C          21.4798   73.4958   -0.0966 C.3     1  UNL1        0.1761
     34 O          22.7431   70.3850   -2.4823 O.3     1  UNL1       -0.3775
     35 O          21.2418   69.7495   -0.0898 O.3     1  UNL1       -0.3794
     36 O          22.1954   71.8165    1.4935 O.3     1  UNL1       -0.3794
     37 O          22.7961   73.5551   -0.6441 O.3     1  UNL1       -0.3258
     38 H          23.6045   70.5332   -2.8957 H       1  UNL1        0.2106
     39 H          21.3251   69.1326   -0.8279 H       1  UNL1        0.2105
     40 H          22.0000   70.9308    1.8262 H       1  UNL1        0.2105
     41 C          21.3423   74.5427    1.0111 C.3     1  UNL1        0.1693
     42 O          22.5885   75.2201    1.1825 O.3     1  UNL1       -0.3794
     43 H          22.4592   75.8699    1.8869 H       1  UNL1        0.2105
@<TRIPOS>BOND
     1    15    16   ar
     2    15    20   ar
     3    15     6    1
     4    16    17   ar
     5    16    21    2
     6    17    18   ar
     7    17    23    1
     8    18    19   ar
     9    18    22    2
    10    19    20   ar
    11     6     7    1
    12     6    11    1
    13     7     8    1
    14     7     9    1
    15     8    13    1
    16     9    10    1
    17     9    12    1
    18    10    11    1
    19    10     5    1
    20    12    14    1
    21     5     4    1
    22     4     1    1
    23     1     2    2
    24     1     3    1
    25     1    24    1
    26    24    25    1
    27    25    26    2
    28    25    27    1
    29    25    28    1
    30    28    29    1
    31    29    30    1
    32    29    37    1
    33    30    31    1
    34    30    34    1
    35    31    32    1
    36    31    35    1
    37    32    33    1
    38    32    36    1
    39    33    41    1
    40    33    37    1
    41    41    42    1
    42    34    38    1
    43    35    39    1
    44    36    40    1
    45    42    43    1
@<TRIPOS>MOLECULE
GDU
 43 45 0 0 0
SMALL
GASTEIGER

@<TRIPOS>ATOM
      1 P          21.5090   70.8197   -0.6755 P.3     1  UNL1        0.2189
      2 O          21.3494   69.5213   -1.3670 O.2     1  UNL1       -0.5170
      3 O          23.0207   71.3432   -0.8593 O.3     1  UNL1       -0.4371
      4 O          20.4894   71.8924   -1.3051 O.3     1  UNL1       -0.3112
      5 C          20.5641   71.7507   -2.7245 C.3     1  UNL1        0.1811
      6 C          18.1316   71.2400   -5.3226 C.3     1  UNL1        0.2383
      7 C          18.0985   69.9294   -4.4955 C.3     1  UNL1        0.1895
      8 O          16.7949   69.3437   -4.5201 O.3     1  UNL1       -0.3779
      9 C          18.4512   70.4344   -3.0722 C.3     1  UNL1        0.1713
     10 C          19.1540   71.7826   -3.3169 C.3     1  UNL1        0.1764
     11 O          19.2263   71.9786   -4.7398 O.3     1  UNL1       -0.3308
     12 O          17.2639   70.6148   -2.2977 O.3     1  UNL1       -0.3794
     13 H          16.8421   68.5358   -3.9900 H       1  UNL1        0.2106
     14 H          16.8395   69.7489   -2.2298 H       1  UNL1        0.2105
     15 N          18.3951   70.9553   -6.7341 N.ar    1  UNL1       -0.2551
     16 C          17.3671   70.7484   -7.5758 C.ar    1  UNL1        0.3323
     17 N          17.5819   70.4882   -8.8789 N.ar    1  UNL1       -0.2743
     18 C          18.8379   70.4209   -9.3608 C.ar    1  UNL1        0.2626
     19 C          19.9307   70.6310   -8.4846 C.ar    1  UNL1        0.0795
     20 C          19.6869   70.8944   -7.1832 C.ar    1  UNL1        0.0869
     21 O          16.2285   70.8064   -7.1558 O.2     1  UNL1       -0.2464
     22 O          19.0334   70.1808  -10.5392 O.2     1  UNL1       -0.2670
     23 H          16.8279   70.3457   -9.4731 H       1  UNL1        0.1734
     24 O          21.1939   70.6338    0.8925 O.3     1  UNL1       -0.2703
     25 P          21.9698   71.8119    1.6672 P.3     1  UNL1        0.2208
     26 O          23.2468   71.2917    2.2035 O.2     1  UNL1       -0.5170
     27 O          22.2700   73.0194    0.6446 O.3     1  UNL1       -0.4371
     28 O          21.0576   72.3506    2.8787 O.3     1  UNL1       -0.2858
     29 C          21.3057   73.7524    2.9935 C.3     1  UNL1        0.2704
     30 C          22.1715   74.0170    4.2263 C.3     1  UNL1        0.1967
     31 C          21.4439   73.4931    5.4683 C.3     1  UNL1        0.1715
     32 C          20.0414   74.1102    5.5114 C.3     1  UNL1        0.1694
     33 C          19.3360   73.8366    4.1808 C.3     1  UNL1        0.1761
     34 O          23.4242   73.3449    4.0845 O.3     1  UNL1       -0.3775
     35 O          22.1703   73.8632    6.6421 O.3     1  UNL1       -0.3794
     36 O          20.1457   75.5191    5.7216 O.3     1  UNL1       -0.3794
     37 O          20.0652   74.4443    3.1155 O.3     1  UNL1       -0.3258
     38 H          23.8429   73.7001    3.2886 H       1  UNL1        0.2106
     39 H          23.0464   73.4645    6.5663 H       1  UNL1        0.2105
     40 H          20.5999   75.6434    6.5651 H       1  UNL1        0.2105
     41 C          17.9216   74.4192    4.2261 C.3     1  UNL1        0.1693
     42 O          17.4238   74.3556    5.5637 O.3     1  UNL1       -0.3794
     43 H          16.5331   74.7322    5.5490 H       1  UNL1        0.2105
@<TRIPOS>BOND
     1    15    16   ar
     2    15    20   ar
     3    15     6    1
     4    16    17   ar
     5    16    21    2
     6    17    18   ar
     7    17    23    1
     8    18    19   ar
     9    18    22    2
    10    19    20   ar
    11     6     7    1
    12     6    11    1
    13     7     8    1
    14     7     9    1
    15     8    13    1
    16     9    10    1
    17     9    12    1
    18    10    11    1
    19    10     5    1
    20    12    14    1
    21     5     4    1
    22     4     1    1
    23     1     2    2
    24     1     3    1
    25     1    24    1
    26    24    25    1
    27    25    26    2
    28    25    27    1
    29    25    28    1
    30    28    29    1
    31    29    30    1
    32    29    37    1
    33    30    31    1
    34    30    34    1
    35    31    32    1
    36    31    35    1
    37    32    33    1
    38    32    36    1
    39    33    41    1
    40    33    37    1
    41    41    42    1
    42    34    38    1
    43    35    39    1
    44    36    40    1
    45    42    43    1
@<TRIPOS>MOLECULE
GDU
 43 45 0 0 0
SMALL
GASTEIGER

@<TRIPOS>ATOM
      1 P          22.8607   72.1933   -3.6158 P.3     1  UNL1        0.2189
      2 O          24.0273   72.9722   -4.0868 O.2     1  UNL1       -0.5170
      3 O          23.3399   70.7182   -3.1829 O.3     1  UNL1       -0.4371
      4 O          22.1953   72.9336   -2.3525 O.3     1  UNL1       -0.3112
      5 C          22.7661   72.3474   -1.1815 C.3     1  UNL1        0.1811
      6 C          21.6600   73.4016    2.0731 C.3     1  UNL1        0.2383
      7 C          21.1242   74.4903    1.1086 C.3     1  UNL1        0.1895
      8 O          19.9033   75.0495    1.5985 O.3     1  UNL1       -0.3779
      9 C          20.8794   73.6807   -0.1914 C.3     1  UNL1        0.1713
     10 C          21.7658   72.4322   -0.0272 C.3     1  UNL1        0.1764
     11 O          22.4693   72.5644    1.2201 O.3     1  UNL1       -0.3308
     12 O          19.5025   73.3143   -0.2998 O.3     1  UNL1       -0.3794
     13 H          19.6247   75.7169    0.9559 H       1  UNL1        0.2106
     14 H          18.9960   74.1368   -0.3394 H       1  UNL1        0.2105
     15 N          22.4754   74.0020    3.1303 N.ar    1  UNL1       -0.2551
     16 C          22.5947   73.3786    4.3158 C.ar    1  UNL1        0.3323
     17 N          23.3412   73.9074    5.3032 N.ar    1  UNL1       -0.2743
     18 C          23.9762   75.0813    5.1213 C.ar    1  UNL1        0.2626
     19 C          23.8549   75.7521    3.8797 C.ar    1  UNL1        0.0795
     20 C          23.1035   75.1974    2.9050 C.ar    1  UNL1        0.0869
     21 O          22.0281   72.3188    4.4944 O.2     1  UNL1       -0.2464
     22 O          24.6482   75.5631    6.0161 O.2     1  UNL1       -0.2670
     23 H          23.4196   73.4417    6.1509 H       1  UNL1        0.1734
     24 O          21.7790   72.0779   -4.8028 O.3     1  UNL1       -0.2703
     25 P          20.5137   71.2829   -4.2054 P.3     1  UNL1        0.2208
     26 O          20.9739   70.0263   -3.5745 O.2     1  UNL1       -0.5170
     27 O          19.7771   72.1977   -3.1032 O.3     1  UNL1       -0.4371
     28 O          19.4830   70.9420   -5.3934 O.3     1  UNL1       -0.2858
     29 C          19.3802   72.1142   -6.2028 C.3     1  UNL1        0.2704
     30 C          17.9706   72.6950   -6.0810 C.3     1  UNL1        0.1967
     31 C          16.9556   71.6384   -6.5280 C.3     1  UNL1        0.1715
     32 C          17.3412   71.1504   -7.9290 C.3     1  UNL1        0.1694
     33 C          18.7991   70.6844   -7.9101 C.3     1  UNL1        0.1761
     34 O          17.7185   73.0585   -4.7225 O.3     1  UNL1       -0.3775
     35 O          15.6473   72.2128   -6.5602 O.3     1  UNL1       -0.3794
     36 O          17.1877   72.2175   -8.8658 O.3     1  UNL1       -0.3794
     37 O          19.6489   71.7764   -7.5616 O.3     1  UNL1       -0.3258
     38 H          18.3834   73.7182   -4.4822 H       1  UNL1        0.2106
     39 H          15.4525   72.5156   -5.6643 H       1  UNL1        0.2105
     40 H          16.2588   72.4816   -8.8396 H       1  UNL1        0.2105
     41 C          19.1841   70.1629   -9.2963 C.3     1  UNL1        0.1693
     42 O          19.3559   71.2655  -10.1884 O.3     1  UNL1       -0.3794
     43 H          19.5980   70.8948  -11.0482 H       1  UNL1        0.2105
@<TRIPOS>BOND
     1    15    16   ar
     2    15    20   ar
     3    15     6    1
     4    16    17   ar
     5    16    21    2
     6    17    18   ar
     7    17    23    1
     8    18    19   ar
     9    18    22    2
    10    19    20   ar
    11     6     7    1
    12     6    11    1
    13     7     8    1
    14     7     9    1
    15     8    13    1
    16     9    10    1
    17     9    12    1
    18    10    11    1
    19    10     5    1
    20    12    14    1
    21     5     4    1
    22     4     1    1
    23     1     2    2
    24     1     3    1
    25     1    24    1
    26    24    25    1
    27    25    26    2
    28    25    27    1
    29    25    28    1
    30    28    29    1
    31    29    30    1
    32    29    37    1
    33    30    31    1
    34    30    34    1
    35    31    32    1
    36    31    35    1
    37    32    33    1
    38    32    36    1
    39    33    41    1
    40    33    37    1
    41    41    42    1
    42    34    38    1
    43    35    39    1
    44    36    40    1
    45    42    43    1
@<TRIPOS>MOLECULE
GDU
 43 45 0 0 0
SMALL
GASTEIGER

@<TRIPOS>ATOM
      1 P          22.7269   72.6701   -3.4400 P.3     1  UNL1        0.2189
      2 O          23.8901   72.8793   -4.3303 O.2     1  UNL1       -0.5170
      3 O          22.9689   71.3564   -2.5408 O.3     1  UNL1       -0.4371
      4 O          22.5464   73.9498   -2.4826 O.3     1  UNL1       -0.3112
      5 C          22.7709   73.5011   -1.1452 C.3     1  UNL1        0.1811
      6 C          20.7553   73.7974    1.8174 C.3     1  UNL1        0.2383
      7 C          20.7883   75.2292    1.2243 C.3     1  UNL1        0.1895
      8 O          19.5818   75.9340    1.5259 O.3     1  UNL1       -0.3779
      9 C          20.8992   74.9483   -0.2969 C.3     1  UNL1        0.1713
     10 C          21.4504   73.5124   -0.3731 C.3     1  UNL1        0.1764
     11 O          21.6691   73.0629    0.9753 O.3     1  UNL1       -0.3308
     12 O          19.6137   75.0314   -0.9153 O.3     1  UNL1       -0.3794
     13 H          19.6662   76.8130    1.1310 H       1  UNL1        0.2106
     14 H          19.2970   75.9352   -0.7829 H       1  UNL1        0.2105
     15 N          21.2218   73.8006    3.2049 N.ar    1  UNL1       -0.2551
     16 C          20.3402   73.6258    4.2052 C.ar    1  UNL1        0.3323
     17 N          20.7434   73.6211    5.4894 N.ar    1  UNL1       -0.2743
     18 C          22.0427   73.8023    5.7948 C.ar    1  UNL1        0.2626
     19 C          22.9818   73.9933    4.7518 C.ar    1  UNL1        0.0795
     20 C          22.5510   73.9894    3.4724 C.ar    1  UNL1        0.0869
     21 O          19.1649   73.4607    3.9452 O.2     1  UNL1       -0.2464
     22 O          22.4080   73.8029    6.9571 O.2     1  UNL1       -0.2670
     23 H          20.0941   73.4893    6.1984 H       1  UNL1        0.1734
     24 O          21.3998   72.4726   -4.3300 O.3     1  UNL1       -0.2703
     25 P          21.6114   73.3246   -5.6788 P.3     1  UNL1        0.2208
     26 O          21.9228   74.7286   -5.3313 O.2     1  UNL1       -0.5170
     27 O          22.8314   72.6980   -6.5232 O.3     1  UNL1       -0.4371
     28 O          20.2674   73.2749   -6.5627 O.3     1  UNL1       -0.2858
     29 C          20.0150   71.9003   -6.8571 C.3     1  UNL1        0.2704
     30 C          19.9275   71.7120   -8.3725 C.3     1  UNL1        0.1967
     31 C          18.8045   72.5977   -8.9209 C.3     1  UNL1        0.1715
     32 C          17.5161   72.2892   -8.1498 C.3     1  UNL1        0.1694
     33 C          17.7863   72.4358   -6.6503 C.3     1  UNL1        0.1761
     34 O          21.1691   72.0838   -8.9735 O.3     1  UNL1       -0.3775
     35 O          18.6124   72.3241  -10.3105 O.3     1  UNL1       -0.3794
     36 O          17.0958   70.9545   -8.4362 O.3     1  UNL1       -0.3794
     37 O          18.7885   71.5031   -6.2483 O.3     1  UNL1       -0.3258
     38 H          21.8463   71.5070   -8.5945 H       1  UNL1        0.2106
     39 H          19.4482   72.5200  -10.7524 H       1  UNL1        0.2105
     40 H          16.9434   70.9075   -9.3890 H       1  UNL1        0.2105
     41 C          16.4969   72.1632   -5.8725 C.3     1  UNL1        0.1693
     42 O          16.4235   70.7745   -5.5453 O.3     1  UNL1       -0.3794
     43 H          15.5991   70.6453   -5.0564 H       1  UNL1        0.2105
@<TRIPOS>BOND
     1    15    16   ar
     2    15    20   ar
     3    15     6    1
     4    16    17   ar
     5    16    21    2
     6    17    18   ar
     7    17    23    1
     8    18    19   ar
     9    18    22    2
    10    19    20   ar
    11     6     7    1
    12     6    11    1
    13     7     8    1
    14     7     9    1
    15     8    13    1
    16     9    10    1
    17     9    12    1
    18    10    11    1
    19    10     5    1
    20    12    14    1
    21     5     4    1
    22     4     1    1
    23     1     2    2
    24     1     3    1
    25     1    24    1
    26    24    25    1
    27    25    26    2
    28    25    27    1
    29    25    28    1
    30    28    29    1
    31    29    30    1
    32    29    37    1
    33    30    31    1
    34    30    34    1
    35    31    32    1
    36    31    35    1
    37    32    33    1
    38    32    36    1
    39    33    41    1
    40    33    37    1
    41    41    42    1
    42    34    38    1
    43    35    39    1
    44    36    40    1
    45    42    43    1
@<TRIPOS>MOLECULE
GDU
 43 45 0 0 0
SMALL
GASTEIGER

@<TRIPOS>ATOM
      1 P          20.5996   70.4613   -2.1438 P.3     1  UNL1        0.2189
      2 O          21.4150   69.3569   -2.6960 O.2     1  UNL1       -0.5170
      3 O          21.1634   71.8683   -2.6874 O.3     1  UNL1       -0.4371
      4 O          19.0694   70.2820   -2.6056 O.3     1  UNL1       -0.3112
      5 C          19.0924   69.9554   -3.9961 C.3     1  UNL1        0.1811
      6 C          18.7971   72.5144   -6.5044 C.3     1  UNL1        0.2383
      7 C          18.3354   71.2170   -7.2160 C.3     1  UNL1        0.1895
      8 O          17.3552   71.5050   -8.2158 O.3     1  UNL1       -0.3779
      9 C          17.7127   70.4096   -6.0474 C.3     1  UNL1        0.1713
     10 C          18.3430   71.0296   -4.7865 C.3     1  UNL1        0.1764
     11 O          19.2619   72.0472   -5.2202 O.3     1  UNL1       -0.3308
     12 O          16.2923   70.5657   -6.0333 O.3     1  UNL1       -0.3794
     13 H          17.1114   70.6600   -8.6188 H       1  UNL1        0.2106
     14 H          15.9635   70.2135   -6.8715 H       1  UNL1        0.2105
     15 N          19.8860   73.1525   -7.2460 N.ar    1  UNL1       -0.2551
     16 C          19.6117   74.1439   -8.1121 C.ar    1  UNL1        0.3323
     17 N          20.5948   74.7495   -8.8039 N.ar    1  UNL1       -0.2743
     18 C          21.8753   74.3629   -8.6458 C.ar    1  UNL1        0.2626
     19 C          22.1786   73.3160   -7.7412 C.ar    1  UNL1        0.0795
     20 C          21.1739   72.7286   -7.0570 C.ar    1  UNL1        0.0869
     21 O          18.4614   74.5038   -8.2650 O.2     1  UNL1       -0.2464
     22 O          22.7653   74.9072   -9.2751 O.2     1  UNL1       -0.2670
     23 H          20.3791   75.4662   -9.4216 H       1  UNL1        0.1734
     24 O          20.6827   70.4365   -0.5361 O.3     1  UNL1       -0.2703
     25 P          22.2450   70.4214   -0.1498 P.3     1  UNL1        0.2208
     26 O          22.5987   69.1034    0.4220 O.2     1  UNL1       -0.5170
     27 O          23.1269   70.6866   -1.4712 O.3     1  UNL1       -0.4371
     28 O          22.5424   71.5744    0.9328 O.3     1  UNL1       -0.2858
     29 C          21.5287   72.5673    0.7707 C.3     1  UNL1        0.2704
     30 C          22.1466   73.8334    0.1754 C.3     1  UNL1        0.1967
     31 C          23.2514   74.3360    1.1099 C.3     1  UNL1        0.1715
     32 C          22.6672   74.4953    2.5180 C.3     1  UNL1        0.1694
     33 C          22.0111   73.1773    2.9368 C.3     1  UNL1        0.1761
     34 O          22.7009   73.5377   -1.1078 O.3     1  UNL1       -0.3775
     35 O          23.7379   75.5964    0.6439 O.3     1  UNL1       -0.3794
     36 O          21.6933   75.5400    2.5159 O.3     1  UNL1       -0.3794
     37 O          20.9478   72.8623    2.0389 O.3     1  UNL1       -0.3258
     38 H          21.9734   73.2189   -1.6592 H       1  UNL1        0.2106
     39 H          24.0835   75.4513   -0.2460 H       1  UNL1        0.2105
     40 H          22.1486   76.3466    2.2416 H       1  UNL1        0.2105
     41 C          21.4544   73.3149    4.3556 C.3     1  UNL1        0.1693
     42 O          22.0447   72.3221    5.1964 O.3     1  UNL1       -0.3794
     43 H          21.6687   72.4434    6.0791 H       1  UNL1        0.2105
@<TRIPOS>BOND
     1    15    16   ar
     2    15    20   ar
     3    15     6    1
     4    16    17   ar
     5    16    21    2
     6    17    18   ar
     7    17    23    1
     8    18    19   ar
     9    18    22    2
    10    19    20   ar
    11     6     7    1
    12     6    11    1
    13     7     8    1
    14     7     9    1
    15     8    13    1
    16     9    10    1
    17     9    12    1
    18    10    11    1
    19    10     5    1
    20    12    14    1
    21     5     4    1
    22     4     1    1
    23     1     2    2
    24     1     3    1
    25     1    24    1
    26    24    25    1
    27    25    26    2
    28    25    27    1
    29    25    28    1
    30    28    29    1
    31    29    30    1
    32    29    37    1
    33    30    31    1
    34    30    34    1
    35    31    32    1
    36    31    35    1
    37    32    33    1
    38    32    36    1
    39    33    41    1
    40    33    37    1
    41    41    42    1
    42    34    38    1
    43    35    39    1
    44    36    40    1
    45    42    43    1
@<TRIPOS>MOLECULE
GDU
 43 45 0 0 0
SMALL
GASTEIGER

@<TRIPOS>ATOM
      1 P          20.4785   70.1410   -2.6383 P.3     1  UNL1        0.2189
      2 O          21.8597   70.2188   -3.1636 O.2     1  UNL1       -0.5170
      3 O          19.6435   69.0541   -3.4835 O.3     1  UNL1       -0.4371
      4 O          20.5162   69.7039   -1.0910 O.3     1  UNL1       -0.3112
      5 C          21.6349   70.3676   -0.5006 C.3     1  UNL1        0.1811
      6 C          21.3947   73.3866    1.4372 C.3     1  UNL1        0.2383
      7 C          22.7842   73.4715    0.7551 C.3     1  UNL1        0.1895
      8 O          23.1474   74.8313    0.5054 O.3     1  UNL1       -0.3779
      9 C          22.5404   72.7111   -0.5744 C.3     1  UNL1        0.1713
     10 C          21.2997   71.8449   -0.2881 C.3     1  UNL1        0.1764
     11 O          20.9252   72.0686    1.0822 O.3     1  UNL1       -0.3308
     12 O          22.2819   73.6317   -1.6363 O.3     1  UNL1       -0.3794
     13 H          24.0172   74.8144    0.0825 H       1  UNL1        0.2106
     14 H          23.0709   74.1830   -1.7274 H       1  UNL1        0.2105
     15 N          21.5222   73.5148    2.8898 N.ar    1  UNL1       -0.2551
     16 C          21.9824   72.4787    3.6129 C.ar    1  UNL1        0.3323
     17 N          22.1125   72.5718    4.9494 N.ar    1  UNL1       -0.2743
     18 C          21.7722   73.7077    5.5883 C.ar    1  UNL1        0.2626
     19 C          21.2805   74.8053    4.8402 C.ar    1  UNL1        0.0795
     20 C          21.1640   74.6866    3.5005 C.ar    1  UNL1        0.0869
     21 O          22.2939   71.4478    3.0506 O.2     1  UNL1       -0.2464
     22 O          21.8851   73.7913    6.7986 O.2     1  UNL1       -0.2670
     23 H          22.4504   71.8155    5.4551 H       1  UNL1        0.1734
     24 O          19.7721   71.5816   -2.7733 O.3     1  UNL1       -0.2703
     25 P          20.3041   72.2355   -4.1442 P.3     1  UNL1        0.2208
     26 O          20.0486   73.6928   -4.1270 O.2     1  UNL1       -0.5170
     27 O          21.8864   71.9703   -4.2864 O.3     1  UNL1       -0.4371
     28 O          19.5355   71.5696   -5.3915 O.3     1  UNL1       -0.2858
     29 C          18.2910   72.2570   -5.5270 C.3     1  UNL1        0.2704
     30 C          17.1404   71.2581   -5.3944 C.3     1  UNL1        0.1967
     31 C          17.2856   70.1839   -6.4767 C.3     1  UNL1        0.1715
     32 C          17.3960   70.8743   -7.8408 C.3     1  UNL1        0.1694
     33 C          18.5294   71.9018   -7.7883 C.3     1  UNL1        0.1761
     34 O          17.1829   70.6477   -4.1034 O.3     1  UNL1       -0.3775
     35 O          16.1411   69.3281   -6.4603 O.3     1  UNL1       -0.3794
     36 O          16.1641   71.5298   -8.1456 O.3     1  UNL1       -0.3794
     37 O          18.2369   72.8912   -6.8027 O.3     1  UNL1       -0.3258
     38 H          17.0955   71.3598   -3.4551 H       1  UNL1        0.2106
     39 H          16.1048   68.9260   -5.5832 H       1  UNL1        0.2105
     40 H          15.4806   70.8473   -8.1624 H       1  UNL1        0.2105
     41 C          18.6707   72.5730   -9.1563 C.3     1  UNL1        0.1693
     42 O          18.7566   71.5711  -10.1710 O.3     1  UNL1       -0.3794
     43 H          18.8436   72.0345  -11.0153 H       1  UNL1        0.2105
@<TRIPOS>BOND
     1    15    16   ar
     2    15    20   ar
     3    15     6    1
     4    16    17   ar
     5    16    21    2
     6    17    18   ar
     7    17    23    1
     8    18    19   ar
     9    18    22    2
    10    19    20   ar
    11     6     7    1
    12     6    11    1
    13     7     8    1
    14     7     9    1
    15     8    13    1
    16     9    10    1
    17     9    12    1
    18    10    11    1
    19    10     5    1
    20    12    14    1
    21     5     4    1
    22     4     1    1
    23     1     2    2
    24     1     3    1
    25     1    24    1
    26    24    25    1
    27    25    26    2
    28    25    27    1
    29    25    28    1
    30    28    29    1
    31    29    30    1
    32    29    37    1
    33    30    31    1
    34    30    34    1
    35    31    32    1
    36    31    35    1
    37    32    33    1
    38    32    36    1
    39    33    41    1
    40    33    37    1
    41    41    42    1
    42    34    38    1
    43    35    39    1
    44    36    40    1
    45    42    43    1
@<TRIPOS>MOLECULE
GDU
 43 45 0 0 0
SMALL
GASTEIGER

@<TRIPOS>ATOM
      1 P          22.6792   73.1376   -3.8402 P.3     1  UNL1        0.2189
      2 O          22.0849   72.2943   -4.9009 O.2     1  UNL1       -0.5170
      3 O          24.2762   73.2010   -4.0369 O.3     1  UNL1       -0.4371
      4 O          22.0682   74.6227   -3.9295 O.3     1  UNL1       -0.3112
      5 C          22.5905   75.2142   -5.1202 C.3     1  UNL1        0.1811
      6 C          19.9700   74.6381   -7.5136 C.3     1  UNL1        0.2383
      7 C          19.2679   74.5344   -6.1355 C.3     1  UNL1        0.1895
      8 O          17.9062   74.9600   -6.2236 O.3     1  UNL1       -0.3779
      9 C          20.1001   75.5180   -5.2721 C.3     1  UNL1        0.1713
     10 C          21.4359   75.6416   -6.0282 C.3     1  UNL1        0.1764
     11 O          21.3659   74.7719   -7.1714 O.3     1  UNL1       -0.3308
     12 O          19.4458   76.7857   -5.1883 O.3     1  UNL1       -0.3794
     13 H          17.5283   74.8711   -5.3375 H       1  UNL1        0.2106
     14 H          18.5927   76.6328   -4.7600 H       1  UNL1        0.2105
     15 N          19.7461   73.4249   -8.3016 N.ar    1  UNL1       -0.2551
     16 C          18.7177   73.3718   -9.1664 C.ar    1  UNL1        0.3323
     17 N          18.4919   72.2696   -9.9054 N.ar    1  UNL1       -0.2743
     18 C          19.2914   71.1927   -9.7822 C.ar    1  UNL1        0.2626
     19 C          20.3751   71.2322   -8.8709 C.ar    1  UNL1        0.0795
     20 C          20.5815   72.3517   -8.1452 C.ar    1  UNL1        0.0869
     21 O          17.9882   74.3356   -9.2889 O.2     1  UNL1       -0.2464
     22 O          19.0850   70.1929  -10.4472 O.2     1  UNL1       -0.2670
     23 H          17.7476   72.2503  -10.5278 H       1  UNL1        0.1734
     24 O          22.3421   72.5029   -2.3994 O.3     1  UNL1       -0.2703
     25 P          22.2541   70.9086   -2.6009 P.3     1  UNL1        0.2208
     26 O          23.4280   70.4436   -3.3720 O.2     1  UNL1       -0.5170
     27 O          22.2378   70.1862   -1.1614 O.3     1  UNL1       -0.4371
     28 O          20.9062   70.5411   -3.3996 O.3     1  UNL1       -0.2858
     29 C          19.9280   70.1856   -2.4216 C.3     1  UNL1        0.2704
     30 C          18.9255   69.2076   -3.0361 C.3     1  UNL1        0.1967
     31 C          18.2627   69.8690   -4.2484 C.3     1  UNL1        0.1715
     32 C          17.6759   71.2161   -3.8117 C.3     1  UNL1        0.1694
     33 C          18.7746   72.0432   -3.1396 C.3     1  UNL1        0.1761
     34 O          19.6059   68.0211   -3.4489 O.3     1  UNL1       -0.3775
     35 O          17.2202   69.0268   -4.7446 O.3     1  UNL1       -0.3794
     36 O          16.6064   70.9956   -2.8911 O.3     1  UNL1       -0.3794
     37 O          19.2506   71.3601   -1.9808 O.3     1  UNL1       -0.3258
     38 H          20.0129   67.6432   -2.6574 H       1  UNL1        0.2106
     39 H          17.6318   68.1900   -4.9951 H       1  UNL1        0.2105
     40 H          15.9429   70.4678   -3.3542 H       1  UNL1        0.2105
     41 C          18.2077   73.4045   -2.7303 C.3     1  UNL1        0.1693
     42 O          17.6352   73.3081   -1.4249 O.3     1  UNL1       -0.3794
     43 H          17.2909   74.1846   -1.2049 H       1  UNL1        0.2105
@<TRIPOS>BOND
     1    15    16   ar
     2    15    20   ar
     3    15     6    1
     4    16    17   ar
     5    16    21    2
     6    17    18   ar
     7    17    23    1
     8    18    19   ar
     9    18    22    2
    10    19    20   ar
    11     6     7    1
    12     6    11    1
    13     7     8    1
    14     7     9    1
    15     8    13    1
    16     9    10    1
    17     9    12    1
    18    10    11    1
    19    10     5    1
    20    12    14    1
    21     5     4    1
    22     4     1    1
    23     1     2    2
    24     1     3    1
    25     1    24    1
    26    24    25    1
    27    25    26    2
    28    25    27    1
    29    25    28    1
    30    28    29    1
    31    29    30    1
    32    29    37    1
    33    30    31    1
    34    30    34    1
    35    31    32    1
    36    31    35    1
    37    32    33    1
    38    32    36    1
    39    33    41    1
    40    33    37    1
    41    41    42    1
    42    34    38    1
    43    35    39    1
    44    36    40    1
    45    42    43    1
@<TRIPOS>MOLECULE
GDU
 43 45 0 0 0
SMALL
GASTEIGER

@<TRIPOS>ATOM
      1 P          21.7034   73.5696   -5.1022 P.3     1  UNL1        0.2189
      2 O          22.7695   72.9394   -5.9119 O.2     1  UNL1       -0.5170
      3 O          20.8504   74.5747   -6.0270 O.3     1  UNL1       -0.4371
      4 O          20.7336   72.4308   -4.5112 O.3     1  UNL1       -0.3112
      5 C          20.1698   71.7456   -5.6306 C.3     1  UNL1        0.1811
      6 C          16.8875   72.4393   -6.9240 C.3     1  UNL1        0.2383
      7 C          17.1278   70.9439   -7.2543 C.3     1  UNL1        0.1895
      8 O          15.8970   70.2172   -7.2529 O.3     1  UNL1       -0.3779
      9 C          18.0370   70.4941   -6.0811 C.3     1  UNL1        0.1713
     10 C          18.6433   71.8074   -5.5527 C.3     1  UNL1        0.1764
     11 O          18.1545   72.8732   -6.3854 O.3     1  UNL1       -0.3308
     12 O          17.2627   69.8494   -5.0678 O.3     1  UNL1       -0.3794
     13 H          16.1151   69.2988   -7.4646 H       1  UNL1        0.2106
     14 H          16.8627   69.0691   -5.4750 H       1  UNL1        0.2105
     15 N          16.5577   73.1909   -8.1361 N.ar    1  UNL1       -0.2551
     16 C          17.4715   73.3117   -9.1152 C.ar    1  UNL1        0.3323
     17 N          17.1924   73.9945  -10.2412 N.ar    1  UNL1       -0.2743
     18 C          15.9896   74.5792  -10.4014 C.ar    1  UNL1        0.2626
     19 C          15.0192   74.4651   -9.3759 C.ar    1  UNL1        0.0795
     20 C          15.3238   73.7711   -8.2588 C.ar    1  UNL1        0.0869
     21 O          18.5607   72.7894   -8.9851 O.2     1  UNL1       -0.2464
     22 O          15.7378   75.2014  -11.4182 O.2     1  UNL1       -0.2670
     23 H          17.8624   74.0679  -10.9394 H       1  UNL1        0.1734
     24 O          22.3682   74.3929   -3.8887 O.3     1  UNL1       -0.2703
     25 P          23.5126   73.4529   -3.2588 P.3     1  UNL1        0.2208
     26 O          23.3638   72.0770   -3.7821 O.2     1  UNL1       -0.5170
     27 O          24.9618   74.0269   -3.6645 O.3     1  UNL1       -0.4371
     28 O          23.3729   73.4365   -1.6556 O.3     1  UNL1       -0.2858
     29 C          22.0071   73.1405   -1.3611 C.3     1  UNL1        0.2704
     30 C          21.5143   74.0658   -0.2474 C.3     1  UNL1        0.1967
     31 C          22.3909   73.8642    0.9926 C.3     1  UNL1        0.1715
     32 C          22.4076   72.3722    1.3436 C.3     1  UNL1        0.1694
     33 C          22.8348   71.5750    0.1087 C.3     1  UNL1        0.1761
     34 O          21.6006   75.4245   -0.6806 O.3     1  UNL1       -0.3775
     35 O          21.8544   74.6113    2.0864 O.3     1  UNL1       -0.3794
     36 O          21.1021   71.9633    1.7541 O.3     1  UNL1       -0.3794
     37 O          21.8960   71.7812   -0.9458 O.3     1  UNL1       -0.3258
     38 H          21.0407   75.5033   -1.4650 H       1  UNL1        0.2106
     39 H          21.8519   75.5386    1.8174 H       1  UNL1        0.2105
     40 H          20.8730   72.4940    2.5282 H       1  UNL1        0.2105
     41 C          22.8879   70.0861    0.4582 C.3     1  UNL1        0.1693
     42 O          21.5668   69.5430    0.4274 O.3     1  UNL1       -0.3794
     43 H          21.6443   68.6055    0.6519 H       1  UNL1        0.2105
@<TRIPOS>BOND
     1    15    16   ar
     2    15    20   ar
     3    15     6    1
     4    16    17   ar
     5    16    21    2
     6    17    18   ar
     7    17    23    1
     8    18    19   ar
     9    18    22    2
    10    19    20   ar
    11     6     7    1
    12     6    11    1
    13     7     8    1
    14     7     9    1
    15     8    13    1
    16     9    10    1
    17     9    12    1
    18    10    11    1
    19    10     5    1
    20    12    14    1
    21     5     4    1
    22     4     1    1
    23     1     2    2
    24     1     3    1
    25     1    24    1
    26    24    25    1
    27    25    26    2
    28    25    27    1
    29    25    28    1
    30    28    29    1
    31    29    30    1
    32    29    37    1
    33    30    31    1
    34    30    34    1
    35    31    32    1
    36    31    35    1
    37    32    33    1
    38    32    36    1
    39    33    41    1
    40    33    37    1
    41    41    42    1
    42    34    38    1
    43    35    39    1
    44    36    40    1
    45    42    43    1
@<TRIPOS>MOLECULE
GDU
 43 45 0 0 0
SMALL
GASTEIGER

@<TRIPOS>ATOM
      1 P          21.0987   70.6594   -2.7362 P.3     1  UNL1        0.2189
      2 O          22.2627   69.9961   -3.3644 O.2     1  UNL1       -0.5170
      3 O          21.4643   72.1947   -2.4163 O.3     1  UNL1       -0.4371
      4 O          19.8431   70.6047   -3.7399 O.3     1  UNL1       -0.3112
      5 C          19.6907   71.9167   -4.2838 C.3     1  UNL1        0.1811
      6 C          19.7041   72.8849   -7.7464 C.3     1  UNL1        0.2383
      7 C          20.5501   73.9718   -7.0352 C.3     1  UNL1        0.1895
      8 O          21.5586   74.4854   -7.9084 O.3     1  UNL1       -0.3779
      9 C          21.1846   73.1757   -5.8652 C.3     1  UNL1        0.1713
     10 C          20.2634   71.9525   -5.7019 C.3     1  UNL1        0.1764
     11 O          19.1961   72.0866   -6.6564 O.3     1  UNL1       -0.3308
     12 O          22.5129   72.7689   -6.2001 O.3     1  UNL1       -0.3794
     13 H          22.0468   75.1540   -7.4078 H       1  UNL1        0.2106
     14 H          23.0243   73.5760   -6.3474 H       1  UNL1        0.2105
     15 N          18.6041   73.4933   -8.4965 N.ar    1  UNL1       -0.2551
     16 C          18.3478   73.0861   -9.7522 C.ar    1  UNL1        0.3323
     17 N          17.3400   73.6266  -10.4623 N.ar    1  UNL1       -0.2743
     18 C          16.5744   74.5966   -9.9264 C.ar    1  UNL1        0.2626
     19 C          16.8364   75.0395   -8.6068 C.ar    1  UNL1        0.0795
     20 C          17.8505   74.4774   -7.9153 C.ar    1  UNL1        0.0869
     21 O          19.0296   72.2117  -10.2489 O.2     1  UNL1       -0.2464
     22 O          15.6650   75.0898  -10.5701 O.2     1  UNL1       -0.2670
     23 H          17.1666   73.3177  -11.3658 H       1  UNL1        0.1734
     24 O          20.7254   69.9014   -1.3657 O.3     1  UNL1       -0.2703
     25 P          21.7499   70.4331   -0.2442 P.3     1  UNL1        0.2208
     26 O          21.8282   69.4495    0.8582 O.2     1  UNL1       -0.5170
     27 O          23.2095   70.6230   -0.8980 O.3     1  UNL1       -0.4371
     28 O          21.2329   71.8447    0.3304 O.3     1  UNL1       -0.2858
     29 C          22.2515   72.3358    1.2027 C.3     1  UNL1        0.2704
     30 C          21.6107   72.8655    2.4865 C.3     1  UNL1        0.1967
     31 C          20.6226   73.9797    2.1275 C.3     1  UNL1        0.1715
     32 C          21.3533   75.0290    1.2822 C.3     1  UNL1        0.1694
     33 C          22.0125   74.3348    0.0877 C.3     1  UNL1        0.1761
     34 O          20.9189   71.8054    3.1489 O.3     1  UNL1       -0.3775
     35 O          20.1257   74.5843    3.3233 O.3     1  UNL1       -0.3794
     36 O          22.3504   75.6728    2.0767 O.3     1  UNL1       -0.3794
     37 O          22.9682   73.3824    0.5519 O.3     1  UNL1       -0.3258
     38 H          21.5765   71.1253    3.3489 H       1  UNL1        0.2106
     39 H          19.6861   73.8878    3.8273 H       1  UNL1        0.2105
     40 H          21.8916   76.0900    2.8175 H       1  UNL1        0.2105
     41 C          22.7164   75.3789   -0.7820 C.3     1  UNL1        0.1693
     42 O          22.4203   75.1298   -2.1573 O.3     1  UNL1       -0.3794
     43 H          22.8809   75.8082   -2.6700 H       1  UNL1        0.2105
@<TRIPOS>BOND
     1    15    16   ar
     2    15    20   ar
     3    15     6    1
     4    16    17   ar
     5    16    21    2
     6    17    18   ar
     7    17    23    1
     8    18    19   ar
     9    18    22    2
    10    19    20   ar
    11     6     7    1
    12     6    11    1
    13     7     8    1
    14     7     9    1
    15     8    13    1
    16     9    10    1
    17     9    12    1
    18    10    11    1
    19    10     5    1
    20    12    14    1
    21     5     4    1
    22     4     1    1
    23     1     2    2
    24     1     3    1
    25     1    24    1
    26    24    25    1
    27    25    26    2
    28    25    27    1
    29    25    28    1
    30    28    29    1
    31    29    30    1
    32    29    37    1
    33    30    31    1
    34    30    34    1
    35    31    32    1
    36    31    35    1
    37    32    33    1
    38    32    36    1
    39    33    41    1
    40    33    37    1
    41    41    42    1
    42    34    38    1
    43    35    39    1
    44    36    40    1
    45    42    43    1
@<TRIPOS>MOLECULE
GDU
 43 45 0 0 0
SMALL
GASTEIGER

@<TRIPOS>ATOM
      1 P          19.8721   71.0144   -2.4279 P.3     1  UNL1        0.2189
      2 O          20.2901   69.8302   -1.6453 O.2     1  UNL1       -0.5170
      3 O          18.3068   71.2975   -2.1780 O.3     1  UNL1       -0.4371
      4 O          20.7295   72.2941   -1.9651 O.3     1  UNL1       -0.3112
      5 C          20.7041   72.3146   -0.5370 C.3     1  UNL1        0.1811
      6 C          21.8442   74.6313    1.9651 C.3     1  UNL1        0.2383
      7 C          23.1438   74.0677    1.3356 C.3     1  UNL1        0.1895
      8 O          24.1907   75.0403    1.3705 O.3     1  UNL1       -0.3779
      9 C          22.7014   73.7834   -0.1234 C.3     1  UNL1        0.1713
     10 C          21.1671   73.6840   -0.0366 C.3     1  UNL1        0.1764
     11 O          20.8023   73.8482    1.3448 O.3     1  UNL1       -0.3308
     12 O          23.0920   74.8568   -0.9821 O.3     1  UNL1       -0.3794
     13 H          24.9673   74.6288    0.9662 H       1  UNL1        0.2106
     14 H          24.0570   74.9056   -0.9481 H       1  UNL1        0.2105
     15 N          21.8435   74.4341    3.4156 N.ar    1  UNL1       -0.2551
     16 C          21.7553   73.1904    3.9195 C.ar    1  UNL1        0.3323
     17 N          21.7562   72.9814    5.2492 N.ar    1  UNL1       -0.2743
     18 C          21.8358   74.0217    6.1010 C.ar    1  UNL1        0.2626
     19 C          21.9234   75.3377    5.5846 C.ar    1  UNL1        0.0795
     20 C          21.9248   75.5188    4.2468 C.ar    1  UNL1        0.0869
     21 O          21.6833   72.2421    3.1635 O.2     1  UNL1       -0.2464
     22 O          21.8318   73.8339    7.3048 O.2     1  UNL1       -0.2670
     23 H          21.6962   72.0768    5.5953 H       1  UNL1        0.1734
     24 O          20.1225   70.7370   -3.9941 O.3     1  UNL1       -0.2703
     25 P          18.6743   70.6589   -4.6915 P.3     1  UNL1        0.2208
     26 O          18.0204   69.3823   -4.3283 O.2     1  UNL1       -0.5170
     27 O          17.7673   71.8892   -4.1838 O.3     1  UNL1       -0.4371
     28 O          18.8420   70.7413   -6.2900 O.3     1  UNL1       -0.2858
     29 C          18.4858   72.0692   -6.6767 C.3     1  UNL1        0.2704
     30 C          18.0226   72.0681   -8.1343 C.3     1  UNL1        0.1967
     31 C          19.1546   71.5331   -9.0168 C.3     1  UNL1        0.1715
     32 C          20.4221   72.3481   -8.7357 C.3     1  UNL1        0.1694
     33 C          20.7045   72.3262   -7.2315 C.3     1  UNL1        0.1761
     34 O          16.8719   71.2323   -8.2702 O.3     1  UNL1       -0.3775
     35 O          18.7927   71.6630  -10.3932 O.3     1  UNL1       -0.3794
     36 O          20.2305   73.6948   -9.1713 O.3     1  UNL1       -0.3794
     37 O          19.6166   72.9249   -6.5287 O.3     1  UNL1       -0.3258
     38 H          16.1893   71.6014   -7.6935 H       1  UNL1        0.2106
     39 H          17.9872   71.1461  -10.5208 H       1  UNL1        0.2105
     40 H          20.0504   73.6592  -10.1198 H       1  UNL1        0.2105
     41 C          21.9878   73.1089   -6.9438 C.3     1  UNL1        0.1693
     42 O          22.8926   72.9576   -8.0390 O.3     1  UNL1       -0.3794
     43 H          23.6858   73.4652   -7.8189 H       1  UNL1        0.2105
@<TRIPOS>BOND
     1    15    16   ar
     2    15    20   ar
     3    15     6    1
     4    16    17   ar
     5    16    21    2
     6    17    18   ar
     7    17    23    1
     8    18    19   ar
     9    18    22    2
    10    19    20   ar
    11     6     7    1
    12     6    11    1
    13     7     8    1
    14     7     9    1
    15     8    13    1
    16     9    10    1
    17     9    12    1
    18    10    11    1
    19    10     5    1
    20    12    14    1
    21     5     4    1
    22     4     1    1
    23     1     2    2
    24     1     3    1
    25     1    24    1
    26    24    25    1
    27    25    26    2
    28    25    27    1
    29    25    28    1
    30    28    29    1
    31    29    30    1
    32    29    37    1
    33    30    31    1
    34    30    34    1
    35    31    32    1
    36    31    35    1
    37    32    33    1
    38    32    36    1
    39    33    41    1
    40    33    37    1
    41    41    42    1
    42    34    38    1
    43    35    39    1
    44    36    40    1
    45    42    43    1
@<TRIPOS>MOLECULE
GDU
 43 45 0 0 0
SMALL
GASTEIGER

@<TRIPOS>ATOM
      1 P          19.5949   71.0254   -3.9212 P.3     1  UNL1        0.2189
      2 O          19.2315   72.3049   -4.5695 O.2     1  UNL1       -0.5170
      3 O          21.1808   70.7841   -4.0615 O.3     1  UNL1       -0.4371
      4 O          19.1962   71.0800   -2.3640 O.3     1  UNL1       -0.3112
      5 C          20.4177   71.0722   -1.6235 C.3     1  UNL1        0.1811
      6 C          21.5897   73.6190    0.6275 C.3     1  UNL1        0.2383
      7 C          22.8612   73.1495   -0.1247 C.3     1  UNL1        0.1895
      8 O          23.8014   74.2185   -0.2536 O.3     1  UNL1       -0.3779
      9 C          22.2894   72.7459   -1.5087 C.3     1  UNL1        0.1713
     10 C          20.7925   72.5047   -1.2393 C.3     1  UNL1        0.1764
     11 O          20.5698   72.7073    0.1669 O.3     1  UNL1       -0.3308
     12 O          22.4707   73.8038   -2.4520 O.3     1  UNL1       -0.3794
     13 H          24.5655   73.8620   -0.7277 H       1  UNL1        0.2106
     14 H          23.4235   73.9467   -2.5329 H       1  UNL1        0.2105
     15 N          21.7712   73.5012    2.0753 N.ar    1  UNL1       -0.2551
     16 C          21.6903   72.2936    2.6614 C.ar    1  UNL1        0.3323
     17 N          21.8568   72.1573    3.9902 N.ar    1  UNL1       -0.2743
     18 C          22.0987   73.2362    4.7593 C.ar    1  UNL1        0.2626
     19 C          22.1809   74.5153    4.1565 C.ar    1  UNL1        0.0795
     20 C          22.0142   74.6231    2.8212 C.ar    1  UNL1        0.0869
     21 O          21.4731   71.3111    1.9805 O.2     1  UNL1       -0.2464
     22 O          22.2448   73.1145    5.9628 O.2     1  UNL1       -0.2670
     23 H          21.7993   71.2776    4.3958 H       1  UNL1        0.1734
     24 O          18.8046   69.8188   -4.6368 O.3     1  UNL1       -0.2703
     25 P          17.3887   70.4109   -5.1213 P.3     1  UNL1        0.2208
     26 O          16.6035   69.3398   -5.7734 O.2     1  UNL1       -0.5170
     27 O          16.5773   70.9709   -3.8476 O.3     1  UNL1       -0.4371
     28 O          17.6363   71.6087   -6.1672 O.3     1  UNL1       -0.2858
     29 C          17.5211   71.0477   -7.4755 C.3     1  UNL1        0.2704
     30 C          18.8578   71.1822   -8.2067 C.3     1  UNL1        0.1967
     31 C          19.2361   72.6645   -8.2852 C.3     1  UNL1        0.1715
     32 C          18.0691   73.4356   -8.9123 C.3     1  UNL1        0.1694
     33 C          16.7917   73.1314   -8.1257 C.3     1  UNL1        0.1761
     34 O          19.8676   70.4661   -7.4936 O.3     1  UNL1       -0.3775
     35 O          20.4057   72.8194   -9.0919 O.3     1  UNL1       -0.3794
     36 O          17.9058   73.0321  -10.2726 O.3     1  UNL1       -0.3794
     37 O          16.5027   71.7360   -8.1979 O.3     1  UNL1       -0.3258
     38 H          19.5850   69.5419   -7.4625 H       1  UNL1        0.2106
     39 H          21.1077   72.3100   -8.6676 H       1  UNL1        0.2105
     40 H          18.7337   73.2367  -10.7265 H       1  UNL1        0.2105
     41 C          15.6264   73.9235   -8.7227 C.3     1  UNL1        0.1693
     42 O          15.6924   75.2780   -8.2735 O.3     1  UNL1       -0.3794
     43 H          14.9431   75.7419   -8.6718 H       1  UNL1        0.2105
@<TRIPOS>BOND
     1    15    16   ar
     2    15    20   ar
     3    15     6    1
     4    16    17   ar
     5    16    21    2
     6    17    18   ar
     7    17    23    1
     8    18    19   ar
     9    18    22    2
    10    19    20   ar
    11     6     7    1
    12     6    11    1
    13     7     8    1
    14     7     9    1
    15     8    13    1
    16     9    10    1
    17     9    12    1
    18    10    11    1
    19    10     5    1
    20    12    14    1
    21     5     4    1
    22     4     1    1
    23     1     2    2
    24     1     3    1
    25     1    24    1
    26    24    25    1
    27    25    26    2
    28    25    27    1
    29    25    28    1
    30    28    29    1
    31    29    30    1
    32    29    37    1
    33    30    31    1
    34    30    34    1
    35    31    32    1
    36    31    35    1
    37    32    33    1
    38    32    36    1
    39    33    41    1
    40    33    37    1
    41    41    42    1
    42    34    38    1
    43    35    39    1
    44    36    40    1
    45    42    43    1
@<TRIPOS>MOLECULE
GDU
 43 45 0 0 0
SMALL
GASTEIGER

@<TRIPOS>ATOM
      1 P          22.3782   71.5728   -2.8179 P.3     1  UNL1        0.2189
      2 O          23.4510   72.3352   -3.4942 O.2     1  UNL1       -0.5170
      3 O          23.0346   70.4551   -1.8625 O.3     1  UNL1       -0.4371
      4 O          21.4823   72.5748   -1.9346 O.3     1  UNL1       -0.3112
      5 C          22.3871   73.3919   -1.1902 C.3     1  UNL1        0.1811
      6 C          22.7048   73.3226    2.3905 C.3     1  UNL1        0.2383
      7 C          21.2562   72.8421    2.1190 C.3     1  UNL1        0.1895
      8 O          20.8264   71.9235    3.1264 O.3     1  UNL1       -0.3779
      9 C          21.4012   72.1315    0.7482 C.3     1  UNL1        0.1713
     10 C          22.6912   72.7260    0.1531 C.3     1  UNL1        0.1764
     11 O          23.1831   73.7059    1.0837 O.3     1  UNL1       -0.3308
     12 O          21.5297   70.7198    0.9283 O.3     1  UNL1       -0.3794
     13 H          19.9223   71.6645    2.9002 H       1  UNL1        0.2106
     14 H          20.7178   70.4171    1.3571 H       1  UNL1        0.2105
     15 N          22.7080   74.4711    3.2982 N.ar    1  UNL1       -0.2551
     16 C          22.2509   75.6609    2.8697 C.ar    1  UNL1        0.3323
     17 N          22.2396   76.7318    3.6852 N.ar    1  UNL1       -0.2743
     18 C          22.6980   76.6299    4.9477 C.ar    1  UNL1        0.2626
     19 C          23.1878   75.3843    5.4109 C.ar    1  UNL1        0.0795
     20 C          23.1838   74.3254    4.5735 C.ar    1  UNL1        0.0869
     21 O          21.8337   75.7681    1.7337 O.2     1  UNL1       -0.2464
     22 O          22.6926   77.5998    5.6851 O.2     1  UNL1       -0.2670
     23 H          21.9021   77.5818    3.3607 H       1  UNL1        0.1734
     24 O          21.4524   70.8557   -3.9229 O.3     1  UNL1       -0.2703
     25 P          20.1975   71.8290   -4.1832 P.3     1  UNL1        0.2208
     26 O          19.3269   71.8417   -2.9870 O.2     1  UNL1       -0.5170
     27 O          20.7279   73.3214   -4.4762 O.3     1  UNL1       -0.4371
     28 O          19.3604   71.2997   -5.4517 O.3     1  UNL1       -0.2858
     29 C          18.1821   72.1023   -5.5355 C.3     1  UNL1        0.2704
     30 C          16.9510   71.1959   -5.5838 C.3     1  UNL1        0.1967
     31 C          17.0616   70.2691   -6.7984 C.3     1  UNL1        0.1715
     32 C          17.2907   71.1254   -8.0490 C.3     1  UNL1        0.1694
     33 C          18.4981   72.0364   -7.8142 C.3     1  UNL1        0.1761
     34 O          16.8840   70.4155   -4.3889 O.3     1  UNL1       -0.3775
     35 O          15.8535   69.5192   -6.9417 O.3     1  UNL1       -0.3794
     36 O          16.1304   71.9181   -8.3043 O.3     1  UNL1       -0.3794
     37 O          18.2386   72.9051   -6.7124 O.3     1  UNL1       -0.3258
     38 H          16.8228   71.0385   -3.6520 H       1  UNL1        0.2106
     39 H          15.7441   69.0070   -6.1305 H       1  UNL1        0.2105
     40 H          15.3965   71.3046   -8.4399 H       1  UNL1        0.2105
     41 C          18.7566   72.8716   -9.0702 C.3     1  UNL1        0.1693
     42 O          18.4846   72.0829  -10.2299 O.3     1  UNL1       -0.3794
     43 H          18.6586   72.6448  -10.9976 H       1  UNL1        0.2105
@<TRIPOS>BOND
     1    15    16   ar
     2    15    20   ar
     3    15     6    1
     4    16    17   ar
     5    16    21    2
     6    17    18   ar
     7    17    23    1
     8    18    19   ar
     9    18    22    2
    10    19    20   ar
    11     6     7    1
    12     6    11    1
    13     7     8    1
    14     7     9    1
    15     8    13    1
    16     9    10    1
    17     9    12    1
    18    10    11    1
    19    10     5    1
    20    12    14    1
    21     5     4    1
    22     4     1    1
    23     1     2    2
    24     1     3    1
    25     1    24    1
    26    24    25    1
    27    25    26    2
    28    25    27    1
    29    25    28    1
    30    28    29    1
    31    29    30    1
    32    29    37    1
    33    30    31    1
    34    30    34    1
    35    31    32    1
    36    31    35    1
    37    32    33    1
    38    32    36    1
    39    33    41    1
    40    33    37    1
    41    41    42    1
    42    34    38    1
    43    35    39    1
    44    36    40    1
    45    42    43    1
@<TRIPOS>MOLECULE
GDU
 43 45 0 0 0
SMALL
GASTEIGER

@<TRIPOS>ATOM
      1 P          19.6203   69.5822   -3.4962 P.3     1  UNL1        0.2189
      2 O          18.9921   70.4776   -2.4997 O.2     1  UNL1       -0.5170
      3 O          18.8753   68.1548   -3.4801 O.3     1  UNL1       -0.4371
      4 O          19.4951   70.2363   -4.9602 O.3     1  UNL1       -0.3112
      5 C          18.1160   70.1699   -5.3265 C.3     1  UNL1        0.1811
      6 C          18.9927   72.7116   -7.7137 C.3     1  UNL1        0.2383
      7 C          18.8312   71.4225   -8.5595 C.3     1  UNL1        0.1895
      8 O          18.3748   71.7318   -9.8783 O.3     1  UNL1       -0.3779
      9 C          17.7468   70.6475   -7.7665 C.3     1  UNL1        0.1713
     10 C          17.8065   71.2596   -6.3546 C.3     1  UNL1        0.1764
     11 O          18.8562   72.2427   -6.3554 O.3     1  UNL1       -0.3308
     12 O          16.4593   70.8494   -8.3526 O.3     1  UNL1       -0.3794
     13 H          18.2956   70.8911  -10.3503 H       1  UNL1        0.2106
     14 H          16.5034   70.4996   -9.2528 H       1  UNL1        0.2105
     15 N          20.3136   73.3066   -7.9236 N.ar    1  UNL1       -0.2551
     16 C          21.4155   72.5471   -7.7932 C.ar    1  UNL1        0.3323
     17 N          22.6416   73.0688   -7.9843 N.ar    1  UNL1       -0.2743
     18 C          22.7850   74.3700   -8.3013 C.ar    1  UNL1        0.2626
     19 C          21.6334   75.1835   -8.4364 C.ar    1  UNL1        0.0795
     20 C          20.4156   74.6338   -8.2435 C.ar    1  UNL1        0.0869
     21 O          21.3019   71.3716   -7.5081 O.2     1  UNL1       -0.2464
     22 O          23.8946   74.8442   -8.4698 O.2     1  UNL1       -0.2670
     23 H          23.4258   72.5049   -7.8902 H       1  UNL1        0.1734
     24 O          21.1747   69.3789   -3.1290 O.3     1  UNL1       -0.2703
     25 P          21.8258   70.8471   -3.0262 P.3     1  UNL1        0.2208
     26 O          23.2946   70.7465   -3.1732 O.2     1  UNL1       -0.5170
     27 O          21.2325   71.7802   -4.1973 O.3     1  UNL1       -0.4371
     28 O          21.4717   71.4934   -1.5955 O.3     1  UNL1       -0.2858
     29 C          22.6637   71.4422   -0.8105 C.3     1  UNL1        0.2704
     30 C          22.3174   71.0034    0.6132 C.3     1  UNL1        0.1967
     31 C          21.3177   71.9976    1.2120 C.3     1  UNL1        0.1715
     32 C          21.8981   73.4109    1.0881 C.3     1  UNL1        0.1694
     33 C          22.2746   73.6679   -0.3732 C.3     1  UNL1        0.1761
     34 O          21.7374   69.6980    0.5839 O.3     1  UNL1       -0.3775
     35 O          21.0969   71.6857    2.5892 O.3     1  UNL1       -0.3794
     36 O          23.0586   73.5249    1.9127 O.3     1  UNL1       -0.3794
     37 O          23.2699   72.7324   -0.7855 O.3     1  UNL1       -0.3258
     38 H          22.3970   69.1084    0.1940 H       1  UNL1        0.2106
     39 H          20.7445   70.7873    2.6196 H       1  UNL1        0.2105
     40 H          22.7757   73.3500    2.8197 H       1  UNL1        0.2105
     41 C          22.8236   75.0895   -0.5141 C.3     1  UNL1        0.1693
     42 O          24.1743   75.0339   -0.9762 O.3     1  UNL1       -0.3794
     43 H          24.4819   75.9476   -1.0522 H       1  UNL1        0.2105
@<TRIPOS>BOND
     1    15    16   ar
     2    15    20   ar
     3    15     6    1
     4    16    17   ar
     5    16    21    2
     6    17    18   ar
     7    17    23    1
     8    18    19   ar
     9    18    22    2
    10    19    20   ar
    11     6     7    1
    12     6    11    1
    13     7     8    1
    14     7     9    1
    15     8    13    1
    16     9    10    1
    17     9    12    1
    18    10    11    1
    19    10     5    1
    20    12    14    1
    21     5     4    1
    22     4     1    1
    23     1     2    2
    24     1     3    1
    25     1    24    1
    26    24    25    1
    27    25    26    2
    28    25    27    1
    29    25    28    1
    30    28    29    1
    31    29    30    1
    32    29    37    1
    33    30    31    1
    34    30    34    1
    35    31    32    1
    36    31    35    1
    37    32    33    1
    38    32    36    1
    39    33    41    1
    40    33    37    1
    41    41    42    1
    42    34    38    1
    43    35    39    1
    44    36    40    1
    45    42    43    1
@<TRIPOS>MOLECULE
GDU
 43 45 0 0 0
SMALL
GASTEIGER

@<TRIPOS>ATOM
      1 P          20.0010   70.5891   -2.6332 P.3     1  UNL1        0.2189
      2 O          20.7377   69.9069   -3.7200 O.2     1  UNL1       -0.5170
      3 O          20.5716   72.0842   -2.4543 O.3     1  UNL1       -0.4371
      4 O          18.4367   70.6522   -3.0020 O.3     1  UNL1       -0.3112
      5 C          18.2893   70.0426   -4.2854 C.3     1  UNL1        0.1811
      6 C          18.6540   72.4561   -6.9254 C.3     1  UNL1        0.2383
      7 C          18.3429   71.1246   -7.6557 C.3     1  UNL1        0.1895
      8 O          17.6333   71.3645   -8.8731 O.3     1  UNL1       -0.3779
      9 C          17.4434   70.3920   -6.6264 C.3     1  UNL1        0.1713
     10 C          17.7728   71.0770   -5.2870 C.3     1  UNL1        0.1764
     11 O          18.7916   72.0587   -5.5445 O.3     1  UNL1       -0.3308
     12 O          16.0639   70.5630   -6.9574 O.3     1  UNL1       -0.3794
     13 H          17.4717   70.5002   -9.2766 H       1  UNL1        0.2106
     14 H          15.9339   70.1666   -7.8296 H       1  UNL1        0.2105
     15 N          19.9017   73.0394   -7.4211 N.ar    1  UNL1       -0.2551
     16 C          19.8634   73.9728   -8.3883 C.ar    1  UNL1        0.3323
     17 N          20.9959   74.5275   -8.8592 N.ar    1  UNL1       -0.2743
     18 C          22.1928   74.1468   -8.3729 C.ar    1  UNL1        0.2626
     19 C          22.2489   73.1605   -7.3579 C.ar    1  UNL1        0.0795
     20 C          21.0977   72.6236   -6.9006 C.ar    1  UNL1        0.0869
     21 O          18.7911   74.3266   -8.8365 O.2     1  UNL1       -0.2464
     22 O          23.2187   74.6449   -8.8018 O.2     1  UNL1       -0.2670
     23 H          20.9493   75.2029   -9.5545 H       1  UNL1        0.1734
     24 O          20.1971   69.7733   -1.2589 O.3     1  UNL1       -0.2703
     25 P          21.4944   70.3887   -0.5321 P.3     1  UNL1        0.2208
     26 O          21.8724   69.5300    0.6120 O.2     1  UNL1       -0.5170
     27 O          22.7159   70.4539   -1.5799 O.3     1  UNL1       -0.4371
     28 O          21.1621   71.8722   -0.0042 O.3     1  UNL1       -0.2858
     29 C          22.2614   72.2781    0.8122 C.3     1  UNL1        0.2704
     30 C          21.7381   72.7744    2.1610 C.3     1  UNL1        0.1967
     31 C          20.7794   73.9453    1.9235 C.3     1  UNL1        0.1715
     32 C          21.4959   75.0006    1.0735 C.3     1  UNL1        0.1694
     33 C          22.0363   74.3353   -0.1947 C.3     1  UNL1        0.1761
     34 O          21.0469   71.7151    2.8253 O.3     1  UNL1       -0.3775
     35 O          20.3966   74.5142    3.1774 O.3     1  UNL1       -0.3794
     36 O          22.5752   75.5636    1.8206 O.3     1  UNL1       -0.3794
     37 O          22.9776   73.3223    0.1569 O.3     1  UNL1       -0.3258
     38 H          21.6850   70.9990    2.9473 H       1  UNL1        0.2106
     39 H          19.9623   73.8144    3.6813 H       1  UNL1        0.2105
     40 H          22.1897   75.9650    2.6103 H       1  UNL1        0.2105
     41 C          22.7241   75.3877   -1.0672 C.3     1  UNL1        0.1693
     42 O          23.9547   74.8610   -1.5664 O.3     1  UNL1       -0.3794
     43 H          24.3552   75.5531   -2.1103 H       1  UNL1        0.2105
@<TRIPOS>BOND
     1    15    16   ar
     2    15    20   ar
     3    15     6    1
     4    16    17   ar
     5    16    21    2
     6    17    18   ar
     7    17    23    1
     8    18    19   ar
     9    18    22    2
    10    19    20   ar
    11     6     7    1
    12     6    11    1
    13     7     8    1
    14     7     9    1
    15     8    13    1
    16     9    10    1
    17     9    12    1
    18    10    11    1
    19    10     5    1
    20    12    14    1
    21     5     4    1
    22     4     1    1
    23     1     2    2
    24     1     3    1
    25     1    24    1
    26    24    25    1
    27    25    26    2
    28    25    27    1
    29    25    28    1
    30    28    29    1
    31    29    30    1
    32    29    37    1
    33    30    31    1
    34    30    34    1
    35    31    32    1
    36    31    35    1
    37    32    33    1
    38    32    36    1
    39    33    41    1
    40    33    37    1
    41    41    42    1
    42    34    38    1
    43    35    39    1
    44    36    40    1
    45    42    43    1
