@<TRIPOS>MOLECULE
*****
 43 45 0 0 0
SMALL
GASTEIGER

@<TRIPOS>ATOM
      1 P          22.7192   71.4844   -2.7313 P.3     1  UNL1        0.2189
      2 O          23.0645   72.9439   -3.3379 O.co2   1  UNL1       -0.4371
      3 O          23.5810   70.3664   -3.2402 O.2     1  UNL1       -0.5170
      4 O          21.1307   71.3214   -2.9916 O.3     1  UNL1       -0.3112
      5 C          20.4612   72.3240   -3.7361 C.3     1  UNL1        0.1811
      6 O          18.3078   72.3528   -4.8019 O.3     1  UNL1       -0.3308
      7 O          17.2936   70.9199   -2.3710 O.3     1  UNL1       -0.3794
      8 O          17.5595   68.9001   -4.1838 O.3     1  UNL1       -0.3779
      9 C          18.5522   70.7968   -3.0313 C.3     1  UNL1        0.1713
     10 C          18.3928   70.0321   -4.3287 C.3     1  UNL1        0.1895
     11 C          18.9603   72.1793   -3.5250 C.3     1  UNL1        0.1764
     12 C          17.7933   71.0860   -5.2441 C.3     1  UNL1        0.2383
     13 H          17.0124   70.0495   -2.0466 H       1  UNL1        0.2105
     14 H          17.9845   68.2591   -3.5928 H       1  UNL1        0.2106
     15 O          15.9689   70.4427   -7.3021 O.2     1  UNL1       -0.2464
     16 O          19.3047   70.3516  -10.4810 O.2     1  UNL1       -0.2670
     17 N          18.1577   70.8889   -6.6187 N.ar    1  UNL1       -0.2551
     18 N          17.6313   70.3980   -8.8833 N.ar    1  UNL1       -0.2743
     19 C          17.1648   70.5679   -7.5735 C.ar    1  UNL1        0.3323
     20 C          19.4868   71.0145   -7.0082 C.ar    1  UNL1        0.0869
     21 C          19.9154   70.8481   -8.2611 C.ar    1  UNL1        0.0795
     22 C          18.9418   70.5110   -9.3197 C.ar    1  UNL1        0.2626
     23 H          16.9575   70.1736   -9.5655 H       1  UNL1        0.1734
     24 O          22.8030   71.7252   -1.1350 O.3     1  UNL1       -0.2703
     25 P          22.4600   70.7472    0.1055 P.3     1  UNL1        0.2208
     26 O          23.7049   69.7139    0.1185 O.co2   1  UNL1       -0.4371
     27 O          21.1121   70.0919    0.0181 O.2     1  UNL1       -0.5170
     28 O          22.6754   71.6614    1.4181 O.3     1  UNL1       -0.2858
     29 O          21.8490   72.5020    3.4740 O.3     1  UNL1       -0.3258
     30 O          21.0257   75.7464    1.0560 O.3     1  UNL1       -0.3794
     31 O          23.1659   75.9072    2.9643 O.3     1  UNL1       -0.3794
     32 O          20.6720   73.0599    0.0376 O.3     1  UNL1       -0.3775
     33 C          21.7753   74.6156    1.5086 C.3     1  UNL1        0.1715
     34 C          22.1927   74.8664    2.9590 C.3     1  UNL1        0.1694
     35 C          20.9027   73.3658    1.4086 C.3     1  UNL1        0.1967
     36 C          22.7669   73.5947    3.5979 C.3     1  UNL1        0.1761
     37 C          21.5434   72.1714    2.1179 C.3     1  UNL1        0.2704
     38 H          21.5742   76.5433    1.1164 H       1  UNL1        0.2105
     39 H          22.7909   76.7042    2.5577 H       1  UNL1        0.2105
     40 H          20.2660   73.8237   -0.4001 H       1  UNL1        0.2106
     41 O          22.3353   72.7819    5.8029 O.3     1  UNL1       -0.3794
     42 C          23.0433   73.7783    5.0885 C.3     1  UNL1        0.1693
     43 H          22.5020   72.8862    6.7532 H       1  UNL1        0.2105
@<TRIPOS>UNITY_ATOM_ATTR
2 1
charge -1
26 1
charge -1
@<TRIPOS>BOND
     1    25    28    1
     2    25    24    1
     3    25    26    1
     4    25    27    2
     5     1     4    1
     6     1    24    1
     7     1     2    1
     8     1     3    2
     9     6    11    1
    10     6    12    1
    11    29    36    1
    12    29    37    1
    13     7     9    1
    14     7    13    1
    15     8    10    1
    16     8    14    1
    17    28    37    1
    18     4     5    1
    19    30    33    1
    20    30    38    1
    21    31    34    1
    22    31    39    1
    23    32    35    1
    24    32    40    1
    25    41    42    1
    26    41    43    1
    27    15    19    2
    28    16    22    2
    29    17    12    1
    30    17    19   ar
    31    17    20   ar
    32    18    19   ar
    33    18    22   ar
    34    18    23    1
    35     9    10    1
    36     9    11    1
    37    10    12    1
    38    11     5    1
    39    33    34    1
    40    33    35    1
    41    34    36    1
    42    35    37    1
    43    36    42    1
    44    20    21   ar
    45    21    22   ar
@<TRIPOS>MOLECULE
*****
 43 45 0 0 0
SMALL
GASTEIGER

@<TRIPOS>ATOM
      1 P          22.7099   71.1191   -1.9357 P.3     1  UNL1        0.2189
      2 O          23.5334   70.6314   -3.2401 O.co2   1  UNL1       -0.4371
      3 O          23.2150   70.5806   -0.6294 O.2     1  UNL1       -0.5170
      4 O          21.1718   70.7669   -2.2933 O.3     1  UNL1       -0.3112
      5 C          20.6813   71.1076   -3.5783 C.3     1  UNL1        0.1811
      6 O          18.8095   72.0731   -4.7350 O.3     1  UNL1       -0.3308
      7 O          17.1180   71.0072   -2.5004 O.3     1  UNL1       -0.3794
      8 O          16.7051   69.1800   -4.4821 O.3     1  UNL1       -0.3779
      9 C          18.2730   70.4334   -3.1104 C.3     1  UNL1        0.1713
     10 C          17.9280   69.8880   -4.4804 C.3     1  UNL1        0.1895
     11 C          19.2346   71.5650   -3.4515 C.3     1  UNL1        0.1764
     12 C          17.8718   71.1539   -5.3186 C.3     1  UNL1        0.2383
     13 H          16.4893   70.3036   -2.2732 H       1  UNL1        0.2105
     14 H          16.7917   68.3834   -3.9355 H       1  UNL1        0.2106
     15 O          16.0572   70.4050   -7.3494 O.2     1  UNL1       -0.2464
     16 O          19.3866   70.2863  -10.5341 O.2     1  UNL1       -0.2670
     17 N          18.2372   70.9211   -6.6874 N.ar    1  UNL1       -0.2551
     18 N          17.7164   70.3467   -8.9335 N.ar    1  UNL1       -0.2743
     19 C          17.2494   70.5479   -7.6284 C.ar    1  UNL1        0.3323
     20 C          19.5622   71.0635   -7.0847 C.ar    1  UNL1        0.0869
     21 C          19.9915   70.8668   -8.3330 C.ar    1  UNL1        0.0795
     22 C          19.0231   70.4746   -9.3773 C.ar    1  UNL1        0.2626
     23 H          17.0461   70.0857   -9.6061 H       1  UNL1        0.1734
     24 O          22.7522   72.7302   -2.0605 O.3     1  UNL1       -0.2703
     25 P          23.3357   73.6899   -3.2231 P.3     1  UNL1        0.2208
     26 O          23.8958   72.6430   -4.3221 O.co2   1  UNL1       -0.4371
     27 O          24.3501   74.6882   -2.7454 O.2     1  UNL1       -0.5170
     28 O          22.0282   74.3410   -3.9098 O.3     1  UNL1       -0.2858
     29 O          22.7080   75.3310   -5.9529 O.3     1  UNL1       -0.3258
     30 O          18.7376   76.4654   -5.9590 O.3     1  UNL1       -0.3794
     31 O          19.6321   74.4246   -7.7710 O.3     1  UNL1       -0.3794
     32 O          20.2323   76.4541   -3.4800 O.3     1  UNL1       -0.3775
     33 C          19.8446   75.5983   -5.6978 C.3     1  UNL1        0.1715
     34 C          20.5157   75.2624   -7.0311 C.3     1  UNL1        0.1694
     35 C          20.8252   76.3077   -4.7659 C.3     1  UNL1        0.1967
     36 C          21.8615   74.5583   -6.8119 C.3     1  UNL1        0.1761
     37 C          22.1492   75.5493   -4.6560 C.3     1  UNL1        0.2704
     38 H          18.1109   76.0207   -6.5498 H       1  UNL1        0.2105
     39 H          18.7859   74.8808   -7.9020 H       1  UNL1        0.2105
     40 H          19.3952   76.9360   -3.5631 H       1  UNL1        0.2106
     41 O          22.0509   75.1977   -9.1063 O.3     1  UNL1       -0.3794
     42 C          22.6207   74.3554   -8.1214 C.3     1  UNL1        0.1693
     43 H          22.5243   75.0795   -9.9451 H       1  UNL1        0.2105
@<TRIPOS>UNITY_ATOM_ATTR
2 1
charge -1
26 1
charge -1
@<TRIPOS>BOND
     1    25    28    1
     2    25    24    1
     3    25    26    1
     4    25    27    2
     5     1     4    1
     6     1    24    1
     7     1     2    1
     8     1     3    2
     9     6    11    1
    10     6    12    1
    11    29    36    1
    12    29    37    1
    13     7     9    1
    14     7    13    1
    15     8    10    1
    16     8    14    1
    17    28    37    1
    18     4     5    1
    19    30    33    1
    20    30    38    1
    21    31    34    1
    22    31    39    1
    23    32    35    1
    24    32    40    1
    25    41    42    1
    26    41    43    1
    27    15    19    2
    28    16    22    2
    29    17    12    1
    30    17    19   ar
    31    17    20   ar
    32    18    19   ar
    33    18    22   ar
    34    18    23    1
    35     9    10    1
    36     9    11    1
    37    10    12    1
    38    11     5    1
    39    33    34    1
    40    33    35    1
    41    34    36    1
    42    35    37    1
    43    36    42    1
    44    20    21   ar
    45    21    22   ar
@<TRIPOS>MOLECULE
*****
 43 45 0 0 0
SMALL
GASTEIGER

@<TRIPOS>ATOM
      1 P          21.6836   70.8661   -1.0885 P.3     1  UNL1        0.2189
      2 O          23.2654   70.6363   -0.8385 O.co2   1  UNL1       -0.4371
      3 O          20.8219   69.6621   -0.8448 O.2     1  UNL1       -0.5170
      4 O          21.6127   71.4909   -2.5793 O.3     1  UNL1       -0.3112
      5 C          20.7672   70.8710   -3.5326 C.3     1  UNL1        0.1811
      6 O          18.9556   72.0064   -4.6293 O.3     1  UNL1       -0.3308
      7 O          17.2130   70.9613   -2.4243 O.3     1  UNL1       -0.3794
      8 O          16.6651   69.2508   -4.4763 O.3     1  UNL1       -0.3779
      9 C          18.3228   70.3386   -3.0692 C.3     1  UNL1        0.1713
     10 C          17.9324   69.8756   -4.4573 C.3     1  UNL1        0.1895
     11 C          19.3551   71.4174   -3.3724 C.3     1  UNL1        0.1764
     12 C          17.9545   71.1768   -5.2413 C.3     1  UNL1        0.2383
     13 H          16.5405   70.2919   -2.2204 H       1  UNL1        0.2105
     14 H          16.7024   68.4279   -3.9643 H       1  UNL1        0.2106
     15 O          16.1011   70.4805   -7.2557 O.2     1  UNL1       -0.2464
     16 O          19.3696   70.4403  -10.5048 O.2     1  UNL1       -0.2670
     17 N          18.2938   70.9784   -6.6222 N.ar    1  UNL1       -0.2551
     18 N          17.7300   70.4612   -8.8719 N.ar    1  UNL1       -0.2743
     19 C          17.2880   70.6297   -7.5535 C.ar    1  UNL1        0.3323
     20 C          19.6112   71.1301   -7.0408 C.ar    1  UNL1        0.0869
     21 C          20.0166   70.9647   -8.3016 C.ar    1  UNL1        0.0795
     22 C          19.0282   70.5996   -9.3369 C.ar    1  UNL1        0.2626
     23 H          17.0469   70.2177   -9.5381 H       1  UNL1        0.1734
     24 O          21.3474   72.1358   -0.1461 O.3     1  UNL1       -0.2703
     25 P          21.9528   73.6345   -0.1285 P.3     1  UNL1        0.2208
     26 O          20.7518   74.5271   -0.7437 O.co2   1  UNL1       -0.4371
     27 O          23.2623   73.7777   -0.8486 O.2     1  UNL1       -0.5170
     28 O          22.0010   74.0372    1.4337 O.3     1  UNL1       -0.2858
     29 O          23.8953   74.0969    2.8567 O.3     1  UNL1       -0.3258
     30 O          21.0289   73.0004    5.6194 O.3     1  UNL1       -0.3794
     31 O          22.1102   75.6604    5.6777 O.3     1  UNL1       -0.3794
     32 O          20.9358   71.9196    2.9357 O.3     1  UNL1       -0.3775
     33 C          21.5356   73.6792    4.4671 C.3     1  UNL1        0.1715
     34 C          22.6744   74.5981    4.9138 C.3     1  UNL1        0.1694
     35 C          22.0411   72.6464    3.4615 C.3     1  UNL1        0.1967
     36 C          23.4416   75.1561    3.7076 C.3     1  UNL1        0.1761
     37 C          22.8321   73.3018    2.3280 C.3     1  UNL1        0.2704
     38 H          20.7059   73.6505    6.2617 H       1  UNL1        0.2105
     39 H          21.6282   75.2945    6.4359 H       1  UNL1        0.2105
     40 H          20.4433   71.5092    3.6630 H       1  UNL1        0.2106
     41 O          25.0705   75.5102    5.4194 O.3     1  UNL1       -0.3794
     42 C          24.6768   75.9476    4.1318 C.3     1  UNL1        0.1693
     43 H          25.8558   76.0052    5.7023 H       1  UNL1        0.2105
@<TRIPOS>UNITY_ATOM_ATTR
2 1
charge -1
26 1
charge -1
@<TRIPOS>BOND
     1    25    28    1
     2    25    24    1
     3    25    26    1
     4    25    27    2
     5     1     4    1
     6     1    24    1
     7     1     2    1
     8     1     3    2
     9     6    11    1
    10     6    12    1
    11    29    36    1
    12    29    37    1
    13     7     9    1
    14     7    13    1
    15     8    10    1
    16     8    14    1
    17    28    37    1
    18     4     5    1
    19    30    33    1
    20    30    38    1
    21    31    34    1
    22    31    39    1
    23    32    35    1
    24    32    40    1
    25    41    42    1
    26    41    43    1
    27    15    19    2
    28    16    22    2
    29    17    12    1
    30    17    19   ar
    31    17    20   ar
    32    18    19   ar
    33    18    22   ar
    34    18    23    1
    35     9    10    1
    36     9    11    1
    37    10    12    1
    38    11     5    1
    39    33    34    1
    40    33    35    1
    41    34    36    1
    42    35    37    1
    43    36    42    1
    44    20    21   ar
    45    21    22   ar
@<TRIPOS>MOLECULE
*****
 43 45 0 0 0
SMALL
GASTEIGER

@<TRIPOS>ATOM
      1 P          22.8121   71.8302   -2.2732 P.3     1  UNL1        0.2189
      2 O          23.5052   73.2906   -2.3396 O.co2   1  UNL1       -0.4371
      3 O          23.3951   70.8090   -3.2052 O.2     1  UNL1       -0.5170
      4 O          21.2358   72.1393   -2.4668 O.3     1  UNL1       -0.3112
      5 C          20.5338   71.4570   -3.4913 C.3     1  UNL1        0.1811
      6 O          18.5858   72.2487   -4.6541 O.3     1  UNL1       -0.3308
      7 O          16.9898   71.0109   -2.4380 O.3     1  UNL1       -0.3794
      8 O          16.7642   69.1671   -4.4345 O.3     1  UNL1       -0.3779
      9 C          18.1977   70.5538   -3.0440 C.3     1  UNL1        0.1713
     10 C          17.9143   69.9880   -4.4199 C.3     1  UNL1        0.1895
     11 C          19.0495   71.7740   -3.3711 C.3     1  UNL1        0.1764
     12 C          17.7432   71.2489   -5.2500 C.3     1  UNL1        0.2383
     13 H          16.4294   70.2491   -2.2197 H       1  UNL1        0.2105
     14 H          16.9229   68.3784   -3.8927 H       1  UNL1        0.2106
     15 O          16.0263   70.3235   -7.2931 O.2     1  UNL1       -0.2464
     16 O          19.3646   70.5682  -10.4612 O.2     1  UNL1       -0.2670
     17 N          18.1373   71.0618   -6.6179 N.ar    1  UNL1       -0.2551
     18 N          17.6899   70.4463   -8.8689 N.ar    1  UNL1       -0.2743
     19 C          17.1984   70.5916   -7.5654 C.ar    1  UNL1        0.3323
     20 C          19.4420   71.3439   -7.0079 C.ar    1  UNL1        0.0869
     21 C          19.8952   71.1988   -8.2548 C.ar    1  UNL1        0.0795
     22 C          18.9781   70.7122   -9.3055 C.ar    1  UNL1        0.2626
     23 H          17.0537   70.1196   -9.5460 H       1  UNL1        0.1734
     24 O          22.9178   71.4487   -0.7060 O.3     1  UNL1       -0.2703
     25 P          21.9841   70.5125    0.2240 P.3     1  UNL1        0.2208
     26 O          23.0551   69.6708    1.0969 O.co2   1  UNL1       -0.4371
     27 O          21.0063   69.6669   -0.5394 O.2     1  UNL1       -0.5170
     28 O          21.3078   71.5296    1.2790 O.3     1  UNL1       -0.2858
     29 O          21.7679   73.7945    0.7543 O.3     1  UNL1       -0.3258
     30 O          20.1100   74.3088    4.5010 O.3     1  UNL1       -0.3794
     31 O          18.6186   75.0833    2.1720 O.3     1  UNL1       -0.3794
     32 O          21.8396   72.0455    3.9856 O.3     1  UNL1       -0.3775
     33 C          20.2644   73.6977    3.2172 C.3     1  UNL1        0.1715
     34 C          20.0060   74.7595    2.1464 C.3     1  UNL1        0.1694
     35 C          21.6831   73.1449    3.0949 C.3     1  UNL1        0.1967
     36 C          20.4110   74.2535    0.7554 C.3     1  UNL1        0.1761
     37 C          22.0002   72.7151    1.6614 C.3     1  UNL1        0.2704
     38 H          19.2111   74.6615    4.5853 H       1  UNL1        0.2105
     39 H          18.3758   75.4010    3.0559 H       1  UNL1        0.2105
     40 H          21.6363   72.3306    4.8897 H       1  UNL1        0.2106
     41 O          21.0233   74.9307   -1.4526 O.3     1  UNL1       -0.3794
     42 C          20.3099   75.3491   -0.3036 C.3     1  UNL1        0.1693
     43 H          20.9674   75.6182   -2.1353 H       1  UNL1        0.2105
@<TRIPOS>UNITY_ATOM_ATTR
2 1
charge -1
26 1
charge -1
@<TRIPOS>BOND
     1    25    28    1
     2    25    24    1
     3    25    26    1
     4    25    27    2
     5     1     4    1
     6     1    24    1
     7     1     2    1
     8     1     3    2
     9     6    11    1
    10     6    12    1
    11    29    36    1
    12    29    37    1
    13     7     9    1
    14     7    13    1
    15     8    10    1
    16     8    14    1
    17    28    37    1
    18     4     5    1
    19    30    33    1
    20    30    38    1
    21    31    34    1
    22    31    39    1
    23    32    35    1
    24    32    40    1
    25    41    42    1
    26    41    43    1
    27    15    19    2
    28    16    22    2
    29    17    12    1
    30    17    19   ar
    31    17    20   ar
    32    18    19   ar
    33    18    22   ar
    34    18    23    1
    35     9    10    1
    36     9    11    1
    37    10    12    1
    38    11     5    1
    39    33    34    1
    40    33    35    1
    41    34    36    1
    42    35    37    1
    43    36    42    1
    44    20    21   ar
    45    21    22   ar
@<TRIPOS>MOLECULE
*****
 43 45 0 0 0
SMALL
GASTEIGER

@<TRIPOS>ATOM
      1 P          21.8885   74.0357   -5.6224 P.3     1  UNL1        0.2189
      2 O          20.6015   74.7507   -4.9518 O.co2   1  UNL1       -0.4371
      3 O          23.1201   74.8894   -5.6980 O.2     1  UNL1       -0.5170
      4 O          21.3312   73.4795   -7.0359 O.3     1  UNL1       -0.3112
      5 C          20.1852   74.0933   -7.5995 C.3     1  UNL1        0.1811
      6 O          19.6264   71.8301   -8.1824 O.3     1  UNL1       -0.3308
      7 O          17.9167   73.0075  -10.3461 O.3     1  UNL1       -0.3794
      8 O          16.0912   72.3867   -8.4178 O.3     1  UNL1       -0.3779
      9 C          18.1673   73.4946   -9.0288 C.3     1  UNL1        0.1713
     10 C          17.4150   72.6649   -8.0094 C.3     1  UNL1        0.1895
     11 C          19.6184   73.1853   -8.6823 C.3     1  UNL1        0.1764
     12 C          18.2751   71.4155   -7.9236 C.3     1  UNL1        0.2383
     13 H          16.9960   73.1940  -10.5899 H       1  UNL1        0.2105
     14 H          15.5844   73.2128   -8.4571 H       1  UNL1        0.2106
     15 O          16.0845   69.9077   -6.9719 O.2     1  UNL1       -0.2464
     16 O          18.1608   69.0955   -2.9382 O.2     1  UNL1       -0.2670
     17 N          18.2167   70.7982   -6.6286 N.ar    1  UNL1       -0.2551
     18 N          17.1202   69.5043   -4.9643 N.ar    1  UNL1       -0.2743
     19 C          17.0698   70.0634   -6.2476 C.ar    1  UNL1        0.3323
     20 C          19.2887   70.9244   -5.7518 C.ar    1  UNL1        0.0869
     21 C          19.3205   70.3862   -4.5309 C.ar    1  UNL1        0.0795
     22 C          18.1620   69.6027   -4.0556 C.ar    1  UNL1        0.2626
     23 H          16.3321   68.9883   -4.6771 H       1  UNL1        0.1734
     24 O          22.0558   72.6898   -4.7429 O.3     1  UNL1       -0.2703
     25 P          23.0441   72.3421   -3.5118 P.3     1  UNL1        0.2208
     26 O          24.2953   73.3405   -3.7471 O.co2   1  UNL1       -0.4371
     27 O          23.4190   70.8917   -3.4144 O.2     1  UNL1       -0.5170
     28 O          22.2945   72.9283   -2.2081 O.3     1  UNL1       -0.2858
     29 O          21.5923   71.1848   -0.7646 O.3     1  UNL1       -0.3258
     30 O          19.6839   74.3602    1.0590 O.3     1  UNL1       -0.3794
     31 O          21.9729   73.1684    2.3192 O.3     1  UNL1       -0.3794
     32 O          19.8401   74.2348   -1.8288 O.3     1  UNL1       -0.3775
     33 C          20.7380   73.7102    0.3437 C.3     1  UNL1        0.1715
     34 C          21.2854   72.5805    1.2182 C.3     1  UNL1        0.1694
     35 C          20.1836   73.1552   -0.9670 C.3     1  UNL1        0.1967
     36 C          22.2311   71.6717    0.4214 C.3     1  UNL1        0.1761
     37 C          21.1848   72.2254   -1.6550 C.3     1  UNL1        0.2704
     38 H          20.0294   74.7154    1.8921 H       1  UNL1        0.2105
     39 H          21.3647   73.7401    2.8136 H       1  UNL1        0.2105
     40 H          19.2056   74.8159   -1.3819 H       1  UNL1        0.2106
     41 O          22.6384   69.3177    0.3785 O.3     1  UNL1       -0.3794
     42 C          22.6648   70.4498    1.2282 C.3     1  UNL1        0.1693
     43 H          22.9124   68.5324    0.8785 H       1  UNL1        0.2105
@<TRIPOS>UNITY_ATOM_ATTR
2 1
charge -1
26 1
charge -1
@<TRIPOS>BOND
     1    25    28    1
     2    25    24    1
     3    25    26    1
     4    25    27    2
     5     1     4    1
     6     1    24    1
     7     1     2    1
     8     1     3    2
     9     6    11    1
    10     6    12    1
    11    29    36    1
    12    29    37    1
    13     7     9    1
    14     7    13    1
    15     8    10    1
    16     8    14    1
    17    28    37    1
    18     4     5    1
    19    30    33    1
    20    30    38    1
    21    31    34    1
    22    31    39    1
    23    32    35    1
    24    32    40    1
    25    41    42    1
    26    41    43    1
    27    15    19    2
    28    16    22    2
    29    17    12    1
    30    17    19   ar
    31    17    20   ar
    32    18    19   ar
    33    18    22   ar
    34    18    23    1
    35     9    10    1
    36     9    11    1
    37    10    12    1
    38    11     5    1
    39    33    34    1
    40    33    35    1
    41    34    36    1
    42    35    37    1
    43    36    42    1
    44    20    21   ar
    45    21    22   ar
@<TRIPOS>MOLECULE
*****
 43 45 0 0 0
SMALL
GASTEIGER

@<TRIPOS>ATOM
      1 P          22.2067   71.0596   -3.0293 P.3     1  UNL1        0.2189
      2 O          23.6011   71.5881   -3.6568 O.co2   1  UNL1       -0.4371
      3 O          21.9671   69.5850   -3.1697 O.2     1  UNL1       -0.5170
      4 O          21.0903   72.0197   -3.7000 O.3     1  UNL1       -0.3112
      5 C          21.4664   73.3328   -4.0771 C.3     1  UNL1        0.1811
      6 O          21.5373   72.1616   -6.1740 O.3     1  UNL1       -0.3308
      7 O          22.7839   74.6433   -7.3044 O.3     1  UNL1       -0.3794
      8 O          20.1928   74.8513   -8.1287 O.3     1  UNL1       -0.3779
      9 C          21.7699   74.5160   -6.3089 C.3     1  UNL1        0.1713
     10 C          20.4537   74.1227   -6.9464 C.3     1  UNL1        0.1895
     11 C          22.0931   73.2900   -5.4640 C.3     1  UNL1        0.1764
     12 C          20.6603   72.6402   -7.2067 C.3     1  UNL1        0.2383
     13 H          22.5992   75.4199   -7.8564 H       1  UNL1        0.2105
     14 H          20.0688   75.7882   -7.9106 H       1  UNL1        0.2106
     15 O          18.8921   72.3302   -9.3875 O.2     1  UNL1       -0.2464
     16 O          15.9756   69.7755   -6.8958 O.2     1  UNL1       -0.2670
     17 N          19.4318   71.8988   -7.1559 N.ar    1  UNL1       -0.2551
     18 N          17.4415   71.0583   -8.1451 N.ar    1  UNL1       -0.2743
     19 C          18.6152   71.8053   -8.3070 C.ar    1  UNL1        0.3323
     20 C          19.0479   71.2740   -5.9744 C.ar    1  UNL1        0.0869
     21 C          17.9247   70.5664   -5.8360 C.ar    1  UNL1        0.0795
     22 C          17.0157   70.4196   -6.9911 C.ar    1  UNL1        0.2626
     23 H          16.8568   70.9797   -8.9336 H       1  UNL1        0.1734
     24 O          22.2713   71.5884   -1.5032 O.3     1  UNL1       -0.2703
     25 P          22.2608   70.7856   -0.1002 P.3     1  UNL1        0.2208
     26 O          23.6696   69.9901   -0.1173 O.co2   1  UNL1       -0.4371
     27 O          21.0577   69.9099    0.0988 O.2     1  UNL1       -0.5170
     28 O          22.4508   71.9270    1.0250 O.3     1  UNL1       -0.2858
     29 O          21.4947   72.6384    3.0735 O.3     1  UNL1       -0.3258
     30 O          21.2715   76.1868    0.9735 O.3     1  UNL1       -0.3794
     31 O          23.1964   75.9084    3.0865 O.3     1  UNL1       -0.3794
     32 O          20.7612   73.6765   -0.3747 O.3     1  UNL1       -0.3775
     33 C          21.8493   74.9384    1.3646 C.3     1  UNL1        0.1715
     34 C          22.1295   74.9896    2.8678 C.3     1  UNL1        0.1694
     35 C          20.8710   73.8115    1.0382 C.3     1  UNL1        0.1967
     36 C          22.4993   73.6024    3.4100 C.3     1  UNL1        0.1761
     37 C          21.3067   72.4860    1.6652 C.3     1  UNL1        0.2704
     38 H          21.8878   76.9065    1.1776 H       1  UNL1        0.2105
     39 H          22.9503   76.7802    2.7392 H       1  UNL1        0.2105
     40 H          20.4845   74.5222   -0.7596 H       1  UNL1        0.2106
     41 O          22.0976   72.3831    5.4251 O.3     1  UNL1       -0.3794
     42 C          22.6289   73.5990    4.9316 C.3     1  UNL1        0.1693
     43 H          22.1736   72.3667    6.3924 H       1  UNL1        0.2105
@<TRIPOS>UNITY_ATOM_ATTR
2 1
charge -1
26 1
charge -1
@<TRIPOS>BOND
     1    25    28    1
     2    25    24    1
     3    25    26    1
     4    25    27    2
     5     1     4    1
     6     1    24    1
     7     1     2    1
     8     1     3    2
     9     6    11    1
    10     6    12    1
    11    29    36    1
    12    29    37    1
    13     7     9    1
    14     7    13    1
    15     8    10    1
    16     8    14    1
    17    28    37    1
    18     4     5    1
    19    30    33    1
    20    30    38    1
    21    31    34    1
    22    31    39    1
    23    32    35    1
    24    32    40    1
    25    41    42    1
    26    41    43    1
    27    15    19    2
    28    16    22    2
    29    17    12    1
    30    17    19   ar
    31    17    20   ar
    32    18    19   ar
    33    18    22   ar
    34    18    23    1
    35     9    10    1
    36     9    11    1
    37    10    12    1
    38    11     5    1
    39    33    34    1
    40    33    35    1
    41    34    36    1
    42    35    37    1
    43    36    42    1
    44    20    21   ar
    45    21    22   ar
@<TRIPOS>MOLECULE
*****
 43 45 0 0 0
SMALL
GASTEIGER

@<TRIPOS>ATOM
      1 P          22.8950   71.9864   -3.1317 P.3     1  UNL1        0.2189
      2 O          23.7411   70.6097   -3.2089 O.co2   1  UNL1       -0.4371
      3 O          22.6450   72.4996   -1.7440 O.2     1  UNL1       -0.5170
      4 O          21.5751   71.6813   -4.0164 O.3     1  UNL1       -0.3112
      5 C          20.7139   70.6333   -3.6067 C.3     1  UNL1        0.1811
      6 O          18.9142   71.8192   -4.6689 O.3     1  UNL1       -0.3308
      7 O          17.1599   70.7234   -2.4981 O.3     1  UNL1       -0.3794
      8 O          16.5973   69.0823   -4.6021 O.3     1  UNL1       -0.3779
      9 C          18.2642   70.1103   -3.1613 C.3     1  UNL1        0.1713
     10 C          17.8705   69.6940   -4.5632 C.3     1  UNL1        0.1895
     11 C          19.3070   71.1880   -3.4305 C.3     1  UNL1        0.1764
     12 C          17.9058   71.0184   -5.3067 C.3     1  UNL1        0.2383
     13 H          16.4808   70.0545   -2.3153 H       1  UNL1        0.2105
     14 H          16.6264   68.2437   -4.1157 H       1  UNL1        0.2106
     15 O          16.0354   70.4857   -7.3552 O.2     1  UNL1       -0.2464
     16 O          19.3187   70.4266  -10.5890 O.2     1  UNL1       -0.2670
     17 N          18.2443   70.8595   -6.6929 N.ar    1  UNL1       -0.2551
     18 N          17.6718   70.4569   -8.9637 N.ar    1  UNL1       -0.2743
     19 C          17.2296   70.5931   -7.6416 C.ar    1  UNL1        0.3323
     20 C          19.5697   70.9682   -7.0995 C.ar    1  UNL1        0.0869
     21 C          19.9750   70.8344   -8.3640 C.ar    1  UNL1        0.0795
     22 C          18.9777   70.5550   -9.4172 C.ar    1  UNL1        0.2626
     23 H          16.9825   70.2706   -9.6420 H       1  UNL1        0.1734
     24 O          23.7424   72.9874   -4.0766 O.3     1  UNL1       -0.2703
     25 P          23.8479   74.6004   -4.0893 P.3     1  UNL1        0.2208
     26 O          25.4397   74.8689   -3.9820 O.co2   1  UNL1       -0.4371
     27 O          23.0324   75.2788   -3.0269 O.2     1  UNL1       -0.5170
     28 O          23.4641   75.0229   -5.5990 O.3     1  UNL1       -0.2858
     29 O          21.5286   76.0198   -6.5353 O.3     1  UNL1       -0.3258
     30 O          22.3627   73.2783   -9.5084 O.3     1  UNL1       -0.3794
     31 O          22.8449   76.0702   -9.9782 O.3     1  UNL1       -0.3794
     32 O          22.7457   72.5577   -6.7310 O.3     1  UNL1       -0.3775
     33 C          22.6770   74.2167   -8.4759 C.3     1  UNL1        0.1715
     34 C          22.0968   75.5762   -8.8706 C.3     1  UNL1        0.1694
     35 C          22.0685   73.7339   -7.1605 C.3     1  UNL1        0.1967
     36 C          22.1590   76.5662   -7.6997 C.3     1  UNL1        0.1761
     37 C          22.1382   74.8114   -6.0769 C.3     1  UNL1        0.2704
     38 H          22.7466   73.5787  -10.3462 H       1  UNL1        0.2105
     39 H          22.7978   75.4356  -10.7105 H       1  UNL1        0.2105
     40 H          22.6941   71.8832   -7.4255 H       1  UNL1        0.2106
     41 O          20.5517   77.6507   -9.0959 O.3     1  UNL1       -0.3794
     42 C          21.4441   77.8770   -8.0203 C.3     1  UNL1        0.1693
     43 H          20.0894   78.4764   -9.3108 H       1  UNL1        0.2105
@<TRIPOS>UNITY_ATOM_ATTR
2 1
charge -1
26 1
charge -1
@<TRIPOS>BOND
     1    25    28    1
     2    25    24    1
     3    25    26    1
     4    25    27    2
     5     1     4    1
     6     1    24    1
     7     1     2    1
     8     1     3    2
     9     6    11    1
    10     6    12    1
    11    29    36    1
    12    29    37    1
    13     7     9    1
    14     7    13    1
    15     8    10    1
    16     8    14    1
    17    28    37    1
    18     4     5    1
    19    30    33    1
    20    30    38    1
    21    31    34    1
    22    31    39    1
    23    32    35    1
    24    32    40    1
    25    41    42    1
    26    41    43    1
    27    15    19    2
    28    16    22    2
    29    17    12    1
    30    17    19   ar
    31    17    20   ar
    32    18    19   ar
    33    18    22   ar
    34    18    23    1
    35     9    10    1
    36     9    11    1
    37    10    12    1
    38    11     5    1
    39    33    34    1
    40    33    35    1
    41    34    36    1
    42    35    37    1
    43    36    42    1
    44    20    21   ar
    45    21    22   ar
@<TRIPOS>MOLECULE
*****
 43 45 0 0 0
SMALL
GASTEIGER

@<TRIPOS>ATOM
      1 P          22.6787   71.0239   -1.8970 P.3     1  UNL1        0.2189
      2 O          23.5890   70.6043   -3.1669 O.co2   1  UNL1       -0.4371
      3 O          23.1282   70.4601   -0.5811 O.2     1  UNL1       -0.5170
      4 O          21.1753   70.6349   -2.3513 O.3     1  UNL1       -0.3112
      5 C          20.6971   71.1213   -3.5932 C.3     1  UNL1        0.1811
      6 O          18.7952   72.0965   -4.6913 O.3     1  UNL1       -0.3308
      7 O          17.1532   70.9444   -2.4626 O.3     1  UNL1       -0.3794
      8 O          16.7304   69.1709   -4.4905 O.3     1  UNL1       -0.3779
      9 C          18.3051   70.4034   -3.1074 C.3     1  UNL1        0.1713
     10 C          17.9445   69.8939   -4.4873 C.3     1  UNL1        0.1895
     11 C          19.2472   71.5565   -3.4302 C.3     1  UNL1        0.1764
     12 C          17.8594   71.1830   -5.2868 C.3     1  UNL1        0.2383
     13 H          16.5368   70.2266   -2.2463 H       1  UNL1        0.2105
     14 H          16.8356   68.3599   -3.9690 H       1  UNL1        0.2106
     15 O          16.0667   70.2756   -7.2719 O.2     1  UNL1       -0.2464
     16 O          19.2978   70.4978  -10.5509 O.2     1  UNL1       -0.2670
     17 N          18.2054   70.9950   -6.6675 N.ar    1  UNL1       -0.2551
     18 N          17.6770   70.3872   -8.9030 N.ar    1  UNL1       -0.2743
     19 C          17.2310   70.5344   -7.5833 C.ar    1  UNL1        0.3323
     20 C          19.4985   71.2669   -7.1010 C.ar    1  UNL1        0.0869
     21 C          19.9081   71.1201   -8.3627 C.ar    1  UNL1        0.0795
     22 C          18.9518   70.6431   -9.3825 C.ar    1  UNL1        0.2626
     23 H          17.0155   70.0671   -9.5586 H       1  UNL1        0.1734
     24 O          22.6741   72.6387   -1.9707 O.3     1  UNL1       -0.2703
     25 P          23.3771   73.6558   -3.0119 P.3     1  UNL1        0.2208
     26 O          22.2455   74.7880   -3.2460 O.co2   1  UNL1       -0.4371
     27 O          23.8705   73.0037   -4.2711 O.2     1  UNL1       -0.5170
     28 O          24.5226   74.3965   -2.1492 O.3     1  UNL1       -0.2858
     29 O          24.9639   76.6459   -1.5477 O.3     1  UNL1       -0.3258
     30 O          28.7868   75.4775   -2.5826 O.3     1  UNL1       -0.3794
     31 O          28.1285   75.8850    0.1830 O.3     1  UNL1       -0.3794
     32 O          26.5219   74.5266   -4.1141 O.3     1  UNL1       -0.3775
     33 C          27.4732   75.3067   -2.0434 C.3     1  UNL1        0.1715
     34 C          27.2936   76.3006   -0.8942 C.3     1  UNL1        0.1694
     35 C          26.4449   75.5647   -3.1431 C.3     1  UNL1        0.1967
     36 C          25.8288   76.3646   -0.4410 C.3     1  UNL1        0.1761
     37 C          25.0261   75.6587   -2.5789 C.3     1  UNL1        0.2704
     38 H          29.4446   75.3146   -1.8895 H       1  UNL1        0.2105
     39 H          29.0505   75.8483   -0.1165 H       1  UNL1        0.2105
     40 H          27.4247   74.4775   -4.4639 H       1  UNL1        0.2106
     41 O          24.4272   78.1750    0.2423 O.3     1  UNL1       -0.3794
     42 C          25.5983   77.4622    0.5955 C.3     1  UNL1        0.1693
     43 H          24.2678   78.8767    0.8934 H       1  UNL1        0.2105
@<TRIPOS>UNITY_ATOM_ATTR
2 1
charge -1
26 1
charge -1
@<TRIPOS>BOND
     1    25    28    1
     2    25    24    1
     3    25    26    1
     4    25    27    2
     5     1     4    1
     6     1    24    1
     7     1     2    1
     8     1     3    2
     9     6    11    1
    10     6    12    1
    11    29    36    1
    12    29    37    1
    13     7     9    1
    14     7    13    1
    15     8    10    1
    16     8    14    1
    17    28    37    1
    18     4     5    1
    19    30    33    1
    20    30    38    1
    21    31    34    1
    22    31    39    1
    23    32    35    1
    24    32    40    1
    25    41    42    1
    26    41    43    1
    27    15    19    2
    28    16    22    2
    29    17    12    1
    30    17    19   ar
    31    17    20   ar
    32    18    19   ar
    33    18    22   ar
    34    18    23    1
    35     9    10    1
    36     9    11    1
    37    10    12    1
    38    11     5    1
    39    33    34    1
    40    33    35    1
    41    34    36    1
    42    35    37    1
    43    36    42    1
    44    20    21   ar
    45    21    22   ar
@<TRIPOS>MOLECULE
*****
 43 45 0 0 0
SMALL
GASTEIGER

@<TRIPOS>ATOM
      1 P          22.4009   71.1826   -2.8563 P.3     1  UNL1        0.2189
      2 O          23.7899   70.4528   -3.2506 O.co2   1  UNL1       -0.4371
      3 O          21.1614   70.3958   -3.1662 O.2     1  UNL1       -0.5170
      4 O          22.5087   72.6324   -3.5664 O.3     1  UNL1       -0.3112
      5 C          22.0889   72.7582   -4.9139 C.3     1  UNL1        0.1811
      6 O          20.6556   73.9985   -6.3908 O.3     1  UNL1       -0.3308
      7 O          19.0889   74.7401   -3.9441 O.3     1  UNL1       -0.3794
      8 O          17.5802   72.7473   -5.0347 O.3     1  UNL1       -0.3779
      9 C          19.7511   73.5152   -4.2544 C.3     1  UNL1        0.1713
     10 C          18.9688   72.7439   -5.2968 C.3     1  UNL1        0.1895
     11 C          21.0338   73.8522   -5.0044 C.3     1  UNL1        0.1764
     12 C          19.3248   73.4881   -6.5725 C.3     1  UNL1        0.2383
     13 H          18.2667   74.5505   -3.4645 H       1  UNL1        0.2105
     14 H          17.4048   72.2619   -4.2135 H       1  UNL1        0.2106
     15 O          18.2777   74.2314   -9.0883 O.2     1  UNL1       -0.2464
     16 O          19.3051   70.1340  -10.9313 O.2     1  UNL1       -0.2670
     17 N          19.3061   72.6353   -7.7274 N.ar    1  UNL1       -0.2551
     18 N          18.7903   72.1907  -10.0040 N.ar    1  UNL1       -0.2743
     19 C          18.7564   73.1047   -8.9431 C.ar    1  UNL1        0.3323
     20 C          19.8292   71.3493   -7.6478 C.ar    1  UNL1        0.0869
     21 C          19.8528   70.4895   -8.6683 C.ar    1  UNL1        0.0795
     22 C          19.2982   70.9016   -9.9739 C.ar    1  UNL1        0.2626
     23 H          18.4125   72.4957  -10.8607 H       1  UNL1        0.1734
     24 O          22.6039   71.5289   -1.2905 O.3     1  UNL1       -0.2703
     25 P          22.3842   70.6276    0.0332 P.3     1  UNL1        0.2208
     26 O          23.7474   69.7609    0.1225 O.co2   1  UNL1       -0.4371
     27 O          21.1279   69.8057    0.0165 O.2     1  UNL1       -0.5170
     28 O          22.4840   71.6719    1.2597 O.3     1  UNL1       -0.2858
     29 O          21.3599   72.2056    3.2768 O.3     1  UNL1       -0.3258
     30 O          21.3386   75.9344    1.5031 O.3     1  UNL1       -0.3794
     31 O          23.0736   75.4367    3.7369 O.3     1  UNL1       -0.3794
     32 O          20.9310   73.5657   -0.1102 O.3     1  UNL1       -0.3775
     33 C          21.8733   74.6475    1.8245 C.3     1  UNL1        0.1715
     34 C          22.0240   74.5567    3.3443 C.3     1  UNL1        0.1694
     35 C          20.9200   73.5690    1.3133 C.3     1  UNL1        0.1967
     36 C          22.3377   73.1206    3.7851 C.3     1  UNL1        0.1761
     37 C          21.2925   72.1856    1.8496 C.3     1  UNL1        0.2704
     38 H          21.9394   76.6238    1.8245 H       1  UNL1        0.2105
     39 H          22.8634   76.3400    3.4522 H       1  UNL1        0.2105
     40 H          20.6933   74.4468   -0.4373 H       1  UNL1        0.2106
     41 O          21.0337   73.2582    5.7825 O.3     1  UNL1       -0.3794
     42 C          22.3363   72.9758    5.3053 C.3     1  UNL1        0.1693
     43 H          21.0177   73.1697    6.7488 H       1  UNL1        0.2105
@<TRIPOS>UNITY_ATOM_ATTR
2 1
charge -1
26 1
charge -1
@<TRIPOS>BOND
     1    25    28    1
     2    25    24    1
     3    25    26    1
     4    25    27    2
     5     1     4    1
     6     1    24    1
     7     1     2    1
     8     1     3    2
     9     6    11    1
    10     6    12    1
    11    29    36    1
    12    29    37    1
    13     7     9    1
    14     7    13    1
    15     8    10    1
    16     8    14    1
    17    28    37    1
    18     4     5    1
    19    30    33    1
    20    30    38    1
    21    31    34    1
    22    31    39    1
    23    32    35    1
    24    32    40    1
    25    41    42    1
    26    41    43    1
    27    15    19    2
    28    16    22    2
    29    17    12    1
    30    17    19   ar
    31    17    20   ar
    32    18    19   ar
    33    18    22   ar
    34    18    23    1
    35     9    10    1
    36     9    11    1
    37    10    12    1
    38    11     5    1
    39    33    34    1
    40    33    35    1
    41    34    36    1
    42    35    37    1
    43    36    42    1
    44    20    21   ar
    45    21    22   ar
@<TRIPOS>MOLECULE
*****
 43 45 0 0 0
SMALL
GASTEIGER

@<TRIPOS>ATOM
      1 P          22.4974   70.9867   -1.7851 P.3     1  UNL1        0.2189
      2 O          23.4849   71.2474   -3.0398 O.co2   1  UNL1       -0.4371
      3 O          23.1757   70.5175   -0.5316 O.2     1  UNL1       -0.5170
      4 O          21.3633   69.9992   -2.3821 O.3     1  UNL1       -0.3112
      5 C          20.7919   70.3089   -3.6412 C.3     1  UNL1        0.1811
      6 O          19.0493   71.6346   -4.6310 O.3     1  UNL1       -0.3308
      7 O          17.2635   70.5581   -2.4762 O.3     1  UNL1       -0.3794
      8 O          16.5806   69.0330   -4.6312 O.3     1  UNL1       -0.3779
      9 C          18.3222   69.9091   -3.1785 C.3     1  UNL1        0.1713
     10 C          17.8871   69.5696   -4.5888 C.3     1  UNL1        0.1895
     11 C          19.4214   70.9354   -3.4232 C.3     1  UNL1        0.1764
     12 C          17.9884   70.9172   -5.2829 C.3     1  UNL1        0.2383
     13 H          16.5497   69.9224   -2.3082 H       1  UNL1        0.2105
     14 H          16.5679   68.1761   -4.1769 H       1  UNL1        0.2106
     15 O          16.0754   70.4509   -7.3079 O.2     1  UNL1       -0.2464
     16 O          19.2957   70.4541  -10.6051 O.2     1  UNL1       -0.2670
     17 N          18.2992   70.7922   -6.6790 N.ar    1  UNL1       -0.2551
     18 N          17.6804   70.4530   -8.9480 N.ar    1  UNL1       -0.2743
     19 C          17.2647   70.5576   -7.6145 C.ar    1  UNL1        0.3323
     20 C          19.6174   70.9026   -7.1081 C.ar    1  UNL1        0.0869
     21 C          19.9974   70.7991   -8.3833 C.ar    1  UNL1        0.0795
     22 C          18.9781   70.5541   -9.4240 C.ar    1  UNL1        0.2626
     23 H          16.9770   70.2892   -9.6174 H       1  UNL1        0.1734
     24 O          21.7146   72.3935   -1.6403 O.3     1  UNL1       -0.2703
     25 P          22.2670   73.9032   -1.4715 P.3     1  UNL1        0.2208
     26 O          23.7747   73.6878   -0.9257 O.co2   1  UNL1       -0.4371
     27 O          21.4121   74.7775   -0.6005 O.2     1  UNL1       -0.5170
     28 O          22.4532   74.4413   -2.9817 O.3     1  UNL1       -0.2858
     29 O          20.4788   75.1208   -4.1027 O.3     1  UNL1       -0.3258
     30 O          22.9996   74.7785   -7.3553 O.3     1  UNL1       -0.3794
     31 O          22.2154   77.3843   -6.4371 O.3     1  UNL1       -0.3794
     32 O          23.1679   72.8644   -5.1903 O.3     1  UNL1       -0.3775
     33 C          22.6554   75.0745   -5.9990 C.3     1  UNL1        0.1715
     34 C          21.5949   76.1773   -6.0032 C.3     1  UNL1        0.1694
     35 C          22.1138   73.8103   -5.3343 C.3     1  UNL1        0.1967
     36 C          20.9831   76.3627   -4.6080 C.3     1  UNL1        0.1761
     37 C          21.4837   74.1133   -3.9736 C.3     1  UNL1        0.2704
     38 H          23.3446   75.5770   -7.7830 H       1  UNL1        0.2105
     39 H          22.5981   77.2536   -7.3190 H       1  UNL1        0.2105
     40 H          23.5583   72.6808   -6.0584 H       1  UNL1        0.2106
     41 O          20.3320   78.6565   -4.7604 O.3     1  UNL1       -0.3794
     42 C          19.8147   77.3460   -4.6220 C.3     1  UNL1        0.1693
     43 H          19.5996   79.2931   -4.7711 H       1  UNL1        0.2105
@<TRIPOS>UNITY_ATOM_ATTR
2 1
charge -1
26 1
charge -1
@<TRIPOS>BOND
     1    25    28    1
     2    25    24    1
     3    25    26    1
     4    25    27    2
     5     1     4    1
     6     1    24    1
     7     1     2    1
     8     1     3    2
     9     6    11    1
    10     6    12    1
    11    29    36    1
    12    29    37    1
    13     7     9    1
    14     7    13    1
    15     8    10    1
    16     8    14    1
    17    28    37    1
    18     4     5    1
    19    30    33    1
    20    30    38    1
    21    31    34    1
    22    31    39    1
    23    32    35    1
    24    32    40    1
    25    41    42    1
    26    41    43    1
    27    15    19    2
    28    16    22    2
    29    17    12    1
    30    17    19   ar
    31    17    20   ar
    32    18    19   ar
    33    18    22   ar
    34    18    23    1
    35     9    10    1
    36     9    11    1
    37    10    12    1
    38    11     5    1
    39    33    34    1
    40    33    35    1
    41    34    36    1
    42    35    37    1
    43    36    42    1
    44    20    21   ar
    45    21    22   ar
@<TRIPOS>MOLECULE
*****
 43 45 0 0 0
SMALL
GASTEIGER

@<TRIPOS>ATOM
      1 P          22.4695   72.9499   -4.3839 P.3     1  UNL1        0.2189
      2 O          22.7501   73.7171   -5.7804 O.co2   1  UNL1       -0.4371
      3 O          23.6864   72.3732   -3.7221 O.2     1  UNL1       -0.5170
      4 O          21.3009   71.8923   -4.7498 O.3     1  UNL1       -0.3112
      5 C          20.7116   71.1458   -3.6994 C.3     1  UNL1        0.1811
      6 O          18.7997   72.0876   -4.8090 O.3     1  UNL1       -0.3308
      7 O          17.1737   70.9732   -2.5496 O.3     1  UNL1       -0.3794
      8 O          16.7520   69.1556   -4.5383 O.3     1  UNL1       -0.3779
      9 C          18.3257   70.4251   -3.1881 C.3     1  UNL1        0.1713
     10 C          17.9620   69.8852   -4.5555 C.3     1  UNL1        0.1895
     11 C          19.2601   71.5764   -3.5390 C.3     1  UNL1        0.1764
     12 C          17.8663   71.1568   -5.3812 C.3     1  UNL1        0.2383
     13 H          16.5623   70.2567   -2.3157 H       1  UNL1        0.2105
     14 H          16.8639   68.3562   -4.0006 H       1  UNL1        0.2106
     15 O          16.0166   70.4306   -7.3885 O.2     1  UNL1       -0.2464
     16 O          19.2883   70.3581  -10.6338 O.2     1  UNL1       -0.2670
     17 N          18.2074   70.9421   -6.7592 N.ar    1  UNL1       -0.2551
     18 N          17.6471   70.3953   -9.0028 N.ar    1  UNL1       -0.2743
     19 C          17.2034   70.5791   -7.6870 C.ar    1  UNL1        0.3323
     20 C          19.5248   71.0919   -7.1785 C.ar    1  UNL1        0.0869
     21 C          19.9318   70.9118   -8.4368 C.ar    1  UNL1        0.0795
     22 C          18.9454   70.5312   -9.4683 C.ar    1  UNL1        0.2626
     23 H          16.9652   70.1416   -9.6665 H       1  UNL1        0.1734
     24 O          21.6909   74.0630   -3.5077 O.3     1  UNL1       -0.2703
     25 P          22.1260   74.8530   -2.1663 P.3     1  UNL1        0.2208
     26 O          20.9455   75.9432   -1.9782 O.co2   1  UNL1       -0.4371
     27 O          23.5074   75.4387   -2.2178 O.2     1  UNL1       -0.5170
     28 O          21.8940   73.7909   -0.9733 O.3     1  UNL1       -0.2858
     29 O          23.1007   73.9937    1.0563 O.3     1  UNL1       -0.3258
     30 O          22.1086   69.9913    1.2755 O.3     1  UNL1       -0.3794
     31 O          20.7924   71.8749    2.9983 O.3     1  UNL1       -0.3794
     32 O          22.8309   71.1626   -1.2713 O.3     1  UNL1       -0.3775
     33 C          21.9062   71.3676    0.9433 C.3     1  UNL1        0.1715
     34 C          21.9553   72.1851    2.2356 C.3     1  UNL1        0.1694
     35 C          23.0051   71.8157   -0.0185 C.3     1  UNL1        0.1967
     36 C          22.0133   73.6894    1.9376 C.3     1  UNL1        0.1761
     37 C          23.0057   73.3337   -0.2076 C.3     1  UNL1        0.2704
     38 H          21.4139   69.7004    1.8856 H       1  UNL1        0.2105
     39 H          20.7676   70.9221    3.1792 H       1  UNL1        0.2105
     40 H          22.8326   70.2023   -1.1381 H       1  UNL1        0.2106
     41 O          23.1655   75.5338    2.9273 O.3     1  UNL1       -0.3794
     42 C          22.2215   74.5159    3.2048 C.3     1  UNL1        0.1693
     43 H          23.3078   76.0681    3.7249 H       1  UNL1        0.2105
@<TRIPOS>UNITY_ATOM_ATTR
2 1
charge -1
26 1
charge -1
@<TRIPOS>BOND
     1    25    28    1
     2    25    24    1
     3    25    26    1
     4    25    27    2
     5     1     4    1
     6     1    24    1
     7     1     2    1
     8     1     3    2
     9     6    11    1
    10     6    12    1
    11    29    36    1
    12    29    37    1
    13     7     9    1
    14     7    13    1
    15     8    10    1
    16     8    14    1
    17    28    37    1
    18     4     5    1
    19    30    33    1
    20    30    38    1
    21    31    34    1
    22    31    39    1
    23    32    35    1
    24    32    40    1
    25    41    42    1
    26    41    43    1
    27    15    19    2
    28    16    22    2
    29    17    12    1
    30    17    19   ar
    31    17    20   ar
    32    18    19   ar
    33    18    22   ar
    34    18    23    1
    35     9    10    1
    36     9    11    1
    37    10    12    1
    38    11     5    1
    39    33    34    1
    40    33    35    1
    41    34    36    1
    42    35    37    1
    43    36    42    1
    44    20    21   ar
    45    21    22   ar
@<TRIPOS>MOLECULE
*****
 43 45 0 0 0
SMALL
GASTEIGER

@<TRIPOS>ATOM
      1 P          22.1168   70.6868   -2.8717 P.3     1  UNL1        0.2189
      2 O          23.6707   70.7942   -3.3089 O.co2   1  UNL1       -0.4371
      3 O          21.5123   69.3205   -3.0108 O.2     1  UNL1       -0.5170
      4 O          21.3939   71.8640   -3.7140 O.3     1  UNL1       -0.3112
      5 C          20.2514   71.5390   -4.4866 C.3     1  UNL1        0.1811
      6 O          17.9893   72.1404   -3.9436 O.3     1  UNL1       -0.3308
      7 O          17.8659   69.5589   -2.4233 O.3     1  UNL1       -0.3794
      8 O          16.5707   68.9449   -4.7432 O.3     1  UNL1       -0.3779
      9 C          18.5399   69.8549   -3.6453 C.3     1  UNL1        0.1713
     10 C          17.5443   69.9684   -4.7808 C.3     1  UNL1        0.1895
     11 C          19.0788   71.2769   -3.5515 C.3     1  UNL1        0.1764
     12 C          16.9523   71.3474   -4.5442 C.3     1  UNL1        0.2383
     13 H          17.5133   68.6554   -2.4593 H       1  UNL1        0.2105
     14 H          16.9965   68.0875   -4.8990 H       1  UNL1        0.2106
     15 O          17.7434   70.5215   -7.1269 O.2     1  UNL1       -0.2464
     16 O          15.2684   73.8436   -9.1467 O.2     1  UNL1       -0.2670
     17 N          16.5294   71.9783   -5.7626 N.ar    1  UNL1       -0.2551
     18 N          16.5102   72.1762   -8.1305 N.ar    1  UNL1       -0.2743
     19 C          16.9852   71.4863   -7.0078 C.ar    1  UNL1        0.3323
     20 C          15.6717   73.0719   -5.7152 C.ar    1  UNL1        0.0869
     21 C          15.2290   73.7196   -6.7949 C.ar    1  UNL1        0.0795
     22 C          15.6579   73.2690   -8.1347 C.ar    1  UNL1        0.2626
     23 H          16.8148   71.8515   -9.0088 H       1  UNL1        0.1734
     24 O          22.1223   71.2696   -1.3639 O.3     1  UNL1       -0.2703
     25 P          22.3986   70.5438    0.0537 P.3     1  UNL1        0.2208
     26 O          23.8864   69.9340   -0.1254 O.co2   1  UNL1       -0.4371
     27 O          21.3578   69.5335    0.4410 O.2     1  UNL1       -0.5170
     28 O          22.5785   71.7553    1.1048 O.3     1  UNL1       -0.2858
     29 O          21.5145   72.4080    3.1194 O.3     1  UNL1       -0.3258
     30 O          21.7023   76.0856    1.2508 O.3     1  UNL1       -0.3794
     31 O          23.4305   75.5368    3.4780 O.3     1  UNL1       -0.3794
     32 O          21.1290   73.7073   -0.2966 O.3     1  UNL1       -0.3775
     33 C          22.1602   74.7763    1.5994 C.3     1  UNL1        0.1715
     34 C          22.3236   74.7143    3.1194 C.3     1  UNL1        0.1694
     35 C          21.1357   73.7468    1.1264 C.3     1  UNL1        0.1967
     36 C          22.5532   73.2729    3.5935 C.3     1  UNL1        0.1761
     37 C          21.4285   72.3567    1.6939 C.3     1  UNL1        0.2704
     38 H          22.3485   76.7440    1.5480 H       1  UNL1        0.2105
     39 H          23.2731   76.4441    3.1724 H       1  UNL1        0.2105
     40 H          20.9423   74.5931   -0.6436 H       1  UNL1        0.2106
     41 O          21.2263   73.0216    5.5646 O.3     1  UNL1       -0.3794
     42 C          22.5616   73.1665    5.1169 C.3     1  UNL1        0.1693
     43 H          21.2162   72.9523    6.5325 H       1  UNL1        0.2105
@<TRIPOS>UNITY_ATOM_ATTR
2 1
charge -1
26 1
charge -1
@<TRIPOS>BOND
     1    25    28    1
     2    25    24    1
     3    25    26    1
     4    25    27    2
     5     1     4    1
     6     1    24    1
     7     1     2    1
     8     1     3    2
     9     6    11    1
    10     6    12    1
    11    29    36    1
    12    29    37    1
    13     7     9    1
    14     7    13    1
    15     8    10    1
    16     8    14    1
    17    28    37    1
    18     4     5    1
    19    30    33    1
    20    30    38    1
    21    31    34    1
    22    31    39    1
    23    32    35    1
    24    32    40    1
    25    41    42    1
    26    41    43    1
    27    15    19    2
    28    16    22    2
    29    17    12    1
    30    17    19   ar
    31    17    20   ar
    32    18    19   ar
    33    18    22   ar
    34    18    23    1
    35     9    10    1
    36     9    11    1
    37    10    12    1
    38    11     5    1
    39    33    34    1
    40    33    35    1
    41    34    36    1
    42    35    37    1
    43    36    42    1
    44    20    21   ar
    45    21    22   ar
@<TRIPOS>MOLECULE
*****
 43 45 0 0 0
SMALL
GASTEIGER

@<TRIPOS>ATOM
      1 P          22.6120   70.8422   -1.8979 P.3     1  UNL1        0.2189
      2 O          23.5767   70.8266   -3.1966 O.co2   1  UNL1       -0.4371
      3 O          23.2721   70.4358   -0.6132 O.2     1  UNL1       -0.5170
      4 O          21.3405   69.9485   -2.3478 O.3     1  UNL1       -0.3112
      5 C          20.7499   70.2006   -3.6110 C.3     1  UNL1        0.1811
      6 O          19.0610   71.5888   -4.6079 O.3     1  UNL1       -0.3308
      7 O          17.2196   70.5543   -2.4795 O.3     1  UNL1       -0.3794
      8 O          16.5103   69.0679   -4.6530 O.3     1  UNL1       -0.3779
      9 C          18.2641   69.8768   -3.1762 C.3     1  UNL1        0.1713
     10 C          17.8329   69.5620   -4.5934 C.3     1  UNL1        0.1895
     11 C          19.3981   70.8691   -3.4018 C.3     1  UNL1        0.1764
     12 C          17.9844   70.9108   -5.2759 C.3     1  UNL1        0.2383
     13 H          16.4841   69.9405   -2.3236 H       1  UNL1        0.2105
     14 H          16.4655   68.2086   -4.2055 H       1  UNL1        0.2106
     15 O          16.0801   70.5023   -7.3215 O.2     1  UNL1       -0.2464
     16 O          19.3307   70.4465  -10.5882 O.2     1  UNL1       -0.2670
     17 N          18.3054   70.7863   -6.6698 N.ar    1  UNL1       -0.2551
     18 N          17.7002   70.4750   -8.9464 N.ar    1  UNL1       -0.2743
     19 C          17.2744   70.5820   -7.6163 C.ar    1  UNL1        0.3323
     20 C          19.6298   70.8673   -7.0859 C.ar    1  UNL1        0.0869
     21 C          20.0194   70.7619   -8.3580 C.ar    1  UNL1        0.0795
     22 C          19.0044   70.5475   -9.4096 C.ar    1  UNL1        0.2626
     23 H          16.9994   70.3321   -9.6234 H       1  UNL1        0.1734
     24 O          22.0193   72.3460   -1.9034 O.3     1  UNL1       -0.2703
     25 P          22.4984   73.6787   -1.1242 P.3     1  UNL1        0.2208
     26 O          23.0362   73.1080    0.2909 O.co2   1  UNL1       -0.4371
     27 O          21.4388   74.7354   -1.0033 O.2     1  UNL1       -0.5170
     28 O          23.8293   74.1523   -1.9050 O.3     1  UNL1       -0.2858
     29 O          25.6196   75.6580   -1.5254 O.3     1  UNL1       -0.3258
     30 O          24.6275   76.7700   -5.3764 O.3     1  UNL1       -0.3794
     31 O          27.0465   75.2956   -4.9049 O.3     1  UNL1       -0.3794
     32 O          22.5429   76.0770   -3.4911 O.3     1  UNL1       -0.3775
     33 C          24.8054   75.8593   -4.2881 C.3     1  UNL1        0.1715
     34 C          26.2760   75.8961   -3.8676 C.3     1  UNL1        0.1694
     35 C          23.9043   76.2834   -3.1298 C.3     1  UNL1        0.1967
     36 C          26.4921   75.1525   -2.5427 C.3     1  UNL1        0.1761
     37 C          24.2346   75.5175   -1.8475 C.3     1  UNL1        0.2704
     38 H          25.1965   76.5060   -6.1153 H       1  UNL1        0.2105
     39 H          26.9007   75.7742   -5.7361 H       1  UNL1        0.2105
     40 H          22.3464   76.5672   -4.3041 H       1  UNL1        0.2106
     41 O          27.8667   75.5820   -0.6361 O.3     1  UNL1       -0.3794
     42 C          27.9200   75.3103   -2.0245 C.3     1  UNL1        0.1693
     43 H          28.7685   75.6845   -0.2926 H       1  UNL1        0.2105
@<TRIPOS>UNITY_ATOM_ATTR
2 1
charge -1
26 1
charge -1
@<TRIPOS>BOND
     1    25    28    1
     2    25    24    1
     3    25    26    1
     4    25    27    2
     5     1     4    1
     6     1    24    1
     7     1     2    1
     8     1     3    2
     9     6    11    1
    10     6    12    1
    11    29    36    1
    12    29    37    1
    13     7     9    1
    14     7    13    1
    15     8    10    1
    16     8    14    1
    17    28    37    1
    18     4     5    1
    19    30    33    1
    20    30    38    1
    21    31    34    1
    22    31    39    1
    23    32    35    1
    24    32    40    1
    25    41    42    1
    26    41    43    1
    27    15    19    2
    28    16    22    2
    29    17    12    1
    30    17    19   ar
    31    17    20   ar
    32    18    19   ar
    33    18    22   ar
    34    18    23    1
    35     9    10    1
    36     9    11    1
    37    10    12    1
    38    11     5    1
    39    33    34    1
    40    33    35    1
    41    34    36    1
    42    35    37    1
    43    36    42    1
    44    20    21   ar
    45    21    22   ar
@<TRIPOS>MOLECULE
*****
 43 45 0 0 0
SMALL
GASTEIGER

@<TRIPOS>ATOM
      1 P          22.1247   73.4403   -5.4271 P.3     1  UNL1        0.2189
      2 O          22.2318   74.9868   -5.8901 O.co2   1  UNL1       -0.4371
      3 O          23.4116   72.8291   -4.9564 O.2     1  UNL1       -0.5170
      4 O          21.4167   72.7068   -6.6836 O.3     1  UNL1       -0.3112
      5 C          20.6697   73.4953   -7.5935 C.3     1  UNL1        0.1811
      6 O          19.8754   71.2690   -8.0256 O.3     1  UNL1       -0.3308
      7 O          18.2956   72.4701  -10.2734 O.3     1  UNL1       -0.3794
      8 O          16.4179   72.1760   -8.3179 O.3     1  UNL1       -0.3779
      9 C          18.5980   73.0162   -8.9906 C.3     1  UNL1        0.1713
     10 C          17.7642   72.3408   -7.9218 C.3     1  UNL1        0.1895
     11 C          20.0090   72.5806   -8.6158 C.3     1  UNL1        0.1764
     12 C          18.4885   71.0168   -7.7470 C.3     1  UNL1        0.2383
     13 H          17.3992   72.7351  -10.5343 H       1  UNL1        0.2105
     14 H          16.0006   73.0461   -8.4156 H       1  UNL1        0.2106
     15 O          16.1374   69.8605   -6.6918 O.2     1  UNL1       -0.2464
     16 O          18.1395   69.0618   -2.6181 O.2     1  UNL1       -0.2670
     17 N          18.3675   70.4981   -6.4137 N.ar    1  UNL1       -0.2551
     18 N          17.1363   69.4636   -4.6644 N.ar    1  UNL1       -0.2743
     19 C          17.1422   69.9390   -5.9819 C.ar    1  UNL1        0.3323
     20 C          19.4562   70.5466   -5.5499 C.ar    1  UNL1        0.0869
     21 C          19.4339   70.0900   -4.2959 C.ar    1  UNL1        0.0795
     22 C          18.1919   69.4905   -3.7668 C.ar    1  UNL1        0.2626
     23 H          16.2932   69.0701   -4.3416 H       1  UNL1        0.1734
     24 O          20.9501   73.4737   -4.3170 O.3     1  UNL1       -0.2703
     25 P          20.9277   74.0653   -2.8128 P.3     1  UNL1        0.2208
     26 O          19.3831   74.5009   -2.6084 O.co2   1  UNL1       -0.4371
     27 O          21.9190   75.1662   -2.5697 O.2     1  UNL1       -0.5170
     28 O          21.1161   72.7739   -1.8631 O.3     1  UNL1       -0.2858
     29 O          22.9311   73.2177   -0.4053 O.3     1  UNL1       -0.3258
     30 O          22.1000   69.3378    0.7379 O.3     1  UNL1       -0.3794
     31 O          21.4223   71.5088    2.4916 O.3     1  UNL1       -0.3794
     32 O          21.9191   70.0915   -2.0511 O.3     1  UNL1       -0.3775
     33 C          21.7876   70.6583    0.2861 C.3     1  UNL1        0.1715
     34 C          22.2603   71.6529    1.3483 C.3     1  UNL1        0.1694
     35 C          22.4977   70.9124   -1.0423 C.3     1  UNL1        0.1967
     36 C          22.2038   73.0935    0.8224 C.3     1  UNL1        0.1761
     37 C          22.4234   72.3850   -1.4497 C.3     1  UNL1        0.2704
     38 H          21.6519   69.1699    1.5808 H       1  UNL1        0.2105
     39 H          21.4667   70.5947    2.8134 H       1  UNL1        0.2105
     40 H          21.9726   69.1619   -1.7814 H       1  UNL1        0.2106
     41 O          23.5454   75.0546    1.0739 O.3     1  UNL1       -0.3794
     42 C          22.8179   74.0863    1.8070 C.3     1  UNL1        0.1693
     43 H          23.9416   75.6934    1.6877 H       1  UNL1        0.2105
@<TRIPOS>UNITY_ATOM_ATTR
2 1
charge -1
26 1
charge -1
@<TRIPOS>BOND
     1    25    28    1
     2    25    24    1
     3    25    26    1
     4    25    27    2
     5     1     4    1
     6     1    24    1
     7     1     2    1
     8     1     3    2
     9     6    11    1
    10     6    12    1
    11    29    36    1
    12    29    37    1
    13     7     9    1
    14     7    13    1
    15     8    10    1
    16     8    14    1
    17    28    37    1
    18     4     5    1
    19    30    33    1
    20    30    38    1
    21    31    34    1
    22    31    39    1
    23    32    35    1
    24    32    40    1
    25    41    42    1
    26    41    43    1
    27    15    19    2
    28    16    22    2
    29    17    12    1
    30    17    19   ar
    31    17    20   ar
    32    18    19   ar
    33    18    22   ar
    34    18    23    1
    35     9    10    1
    36     9    11    1
    37    10    12    1
    38    11     5    1
    39    33    34    1
    40    33    35    1
    41    34    36    1
    42    35    37    1
    43    36    42    1
    44    20    21   ar
    45    21    22   ar
@<TRIPOS>MOLECULE
*****
 43 45 0 0 0
SMALL
GASTEIGER

@<TRIPOS>ATOM
      1 P          22.4109   73.1350   -4.2764 P.3     1  UNL1        0.2189
      2 O          23.7569   72.3682   -3.8100 O.co2   1  UNL1       -0.4371
      3 O          21.8537   74.1033   -3.2747 O.2     1  UNL1       -0.5170
      4 O          21.4180   71.9388   -4.7249 O.3     1  UNL1       -0.3112
      5 C          20.8302   71.1344   -3.7173 C.3     1  UNL1        0.1811
      6 O          18.8883   72.0601   -4.7878 O.3     1  UNL1       -0.3308
      7 O          17.3216   70.9566   -2.4816 O.3     1  UNL1       -0.3794
      8 O          16.8599   69.1222   -4.4458 O.3     1  UNL1       -0.3779
      9 C          18.4603   70.4082   -3.1435 C.3     1  UNL1        0.1713
     10 C          18.0661   69.8564   -4.4976 C.3     1  UNL1        0.1895
     11 C          19.3811   71.5605   -3.5253 C.3     1  UNL1        0.1764
     12 C          17.9454   71.1213   -5.3303 C.3     1  UNL1        0.2383
     13 H          16.7189   70.2395   -2.2277 H       1  UNL1        0.2105
     14 H          16.9879   68.3274   -3.9049 H       1  UNL1        0.2106
     15 O          16.0315   70.4967   -7.3115 O.2     1  UNL1       -0.2464
     16 O          19.2452   70.2816  -10.6081 O.2     1  UNL1       -0.2670
     17 N          18.2542   70.8974   -6.7145 N.ar    1  UNL1       -0.2551
     18 N          17.6332   70.3903   -8.9514 N.ar    1  UNL1       -0.2743
     19 C          17.2194   70.5887   -7.6280 C.ar    1  UNL1        0.3323
     20 C          19.5707   70.9850   -7.1537 C.ar    1  UNL1        0.0869
     21 C          19.9489   70.7917   -8.4190 C.ar    1  UNL1        0.0795
     22 C          18.9292   70.4651   -9.4366 C.ar    1  UNL1        0.2626
     23 H          16.9296   70.1737   -9.6054 H       1  UNL1        0.1734
     24 O          22.8405   73.7985   -5.6865 O.3     1  UNL1       -0.2703
     25 P          21.9495   74.3067   -6.9358 P.3     1  UNL1        0.2208
     26 O          20.4740   74.4769   -6.2943 O.co2   1  UNL1       -0.4371
     27 O          22.0028   73.4067   -8.1361 O.2     1  UNL1       -0.5170
     28 O          22.4520   75.8160   -7.2086 O.3     1  UNL1       -0.2858
     29 O          24.3518   75.3403   -8.5431 O.3     1  UNL1       -0.3258
     30 O          24.1554   79.4261   -9.1077 O.3     1  UNL1       -0.3794
     31 O          23.4146   77.6615  -11.2491 O.3     1  UNL1       -0.3794
     32 O          23.5609   78.2972   -6.5092 O.3     1  UNL1       -0.3775
     33 C          23.6286   78.1113   -8.9097 C.3     1  UNL1        0.1715
     34 C          24.0906   77.2295  -10.0715 C.3     1  UNL1        0.1694
     35 C          24.1432   77.5623   -7.5803 C.3     1  UNL1        0.1967
     36 C          23.7922   75.7495   -9.7965 C.3     1  UNL1        0.1761
     37 C          23.8368   76.0712   -7.4285 C.3     1  UNL1        0.2704
     38 H          23.8320   79.7806   -9.9498 H       1  UNL1        0.2105
     39 H          23.6110   78.5976  -11.4112 H       1  UNL1        0.2105
     40 H          23.7623   79.2394   -6.6167 H       1  UNL1        0.2106
     41 O          24.1381   73.4929  -10.5014 O.3     1  UNL1       -0.3794
     42 C          24.3849   74.8378  -10.8686 C.3     1  UNL1        0.1693
     43 H          24.5096   72.9011  -11.1749 H       1  UNL1        0.2105
@<TRIPOS>UNITY_ATOM_ATTR
2 1
charge -1
26 1
charge -1
@<TRIPOS>BOND
     1    25    28    1
     2    25    24    1
     3    25    26    1
     4    25    27    2
     5     1     4    1
     6     1    24    1
     7     1     2    1
     8     1     3    2
     9     6    11    1
    10     6    12    1
    11    29    36    1
    12    29    37    1
    13     7     9    1
    14     7    13    1
    15     8    10    1
    16     8    14    1
    17    28    37    1
    18     4     5    1
    19    30    33    1
    20    30    38    1
    21    31    34    1
    22    31    39    1
    23    32    35    1
    24    32    40    1
    25    41    42    1
    26    41    43    1
    27    15    19    2
    28    16    22    2
    29    17    12    1
    30    17    19   ar
    31    17    20   ar
    32    18    19   ar
    33    18    22   ar
    34    18    23    1
    35     9    10    1
    36     9    11    1
    37    10    12    1
    38    11     5    1
    39    33    34    1
    40    33    35    1
    41    34    36    1
    42    35    37    1
    43    36    42    1
    44    20    21   ar
    45    21    22   ar
@<TRIPOS>MOLECULE
*****
 43 45 0 0 0
SMALL
GASTEIGER

@<TRIPOS>ATOM
      1 P          21.5463   72.9315   -6.1428 P.3     1  UNL1        0.2189
      2 O          21.2839   74.4418   -5.6256 O.co2   1  UNL1       -0.4371
      3 O          22.7397   72.7662   -7.0371 O.2     1  UNL1       -0.5170
      4 O          20.1260   72.4857   -6.7768 O.3     1  UNL1       -0.3112
      5 C          19.7551   71.1197   -6.7110 C.3     1  UNL1        0.1811
      6 O          17.5624   70.8559   -7.6577 O.3     1  UNL1       -0.3308
      7 O          18.9017   71.0287  -10.3349 O.3     1  UNL1       -0.3794
      8 O          17.8719   73.5345  -10.0225 O.3     1  UNL1       -0.3779
      9 C          19.2131   71.7163   -9.1242 C.3     1  UNL1        0.1713
     10 C          18.1903   72.8009   -8.8575 C.3     1  UNL1        0.1895
     11 C          18.9704   70.7582   -7.9647 C.3     1  UNL1        0.1764
     12 C          17.0117   71.9999   -8.3307 C.3     1  UNL1        0.2383
     13 H          19.0493   71.6206  -11.0898 H       1  UNL1        0.2105
     14 H          18.6534   74.0268  -10.3184 H       1  UNL1        0.2106
     15 O          15.0270   73.8670   -9.0741 O.2     1  UNL1       -0.2464
     16 O          14.0099   74.8117   -4.6793 O.2     1  UNL1       -0.2670
     17 N          16.2128   72.7478   -7.4013 N.ar    1  UNL1       -0.2551
     18 N          14.5221   74.3357   -6.8853 N.ar    1  UNL1       -0.2743
     19 C          15.2438   73.6611   -7.8782 C.ar    1  UNL1        0.3323
     20 C          16.3937   72.5719   -6.0337 C.ar    1  UNL1        0.0869
     21 C          15.6981   73.2240   -5.0998 C.ar    1  UNL1        0.0795
     22 C          14.6661   74.1963   -5.5139 C.ar    1  UNL1        0.2626
     23 H          13.8418   74.9773   -7.1940 H       1  UNL1        0.1734
     24 O          21.6129   72.0831   -4.7684 O.3     1  UNL1       -0.2703
     25 P          22.6051   72.1974   -3.4974 P.3     1  UNL1        0.2208
     26 O          23.8834   72.9890   -4.0946 O.co2   1  UNL1       -0.4371
     27 O          22.9362   70.8816   -2.8550 O.2     1  UNL1       -0.5170
     28 O          21.8900   73.2600   -2.5153 O.3     1  UNL1       -0.2858
     29 O          19.7307   72.3558   -2.1459 O.3     1  UNL1       -0.3258
     30 O          22.0004   69.3724   -0.4143 O.3     1  UNL1       -0.3794
     31 O          20.7105   68.8907   -2.9346 O.3     1  UNL1       -0.3794
     32 O          22.7743   72.1437   -0.0973 O.3     1  UNL1       -0.3775
     33 C          21.7043   70.3982   -1.3659 C.3     1  UNL1        0.1715
     34 C          20.4211   70.0116   -2.1039 C.3     1  UNL1        0.1694
     35 C          21.5226   71.7244   -0.6300 C.3     1  UNL1        0.1967
     36 C          19.8939   71.1801   -2.9476 C.3     1  UNL1        0.1761
     37 C          20.9479   72.8052   -1.5474 C.3     1  UNL1        0.2704
     38 H          22.1175   68.5278   -0.8751 H       1  UNL1        0.2105
     39 H          21.0430   68.1602   -2.3897 H       1  UNL1        0.2105
     40 H          23.1275   71.4511    0.4819 H       1  UNL1        0.2106
     41 O          17.5856   70.7316   -2.5238 O.3     1  UNL1       -0.3794
     42 C          18.5328   70.8700   -3.5669 C.3     1  UNL1        0.1693
     43 H          16.7144   70.5343   -2.9031 H       1  UNL1        0.2105
@<TRIPOS>UNITY_ATOM_ATTR
2 1
charge -1
26 1
charge -1
@<TRIPOS>BOND
     1    25    28    1
     2    25    24    1
     3    25    26    1
     4    25    27    2
     5     1     4    1
     6     1    24    1
     7     1     2    1
     8     1     3    2
     9     6    11    1
    10     6    12    1
    11    29    36    1
    12    29    37    1
    13     7     9    1
    14     7    13    1
    15     8    10    1
    16     8    14    1
    17    28    37    1
    18     4     5    1
    19    30    33    1
    20    30    38    1
    21    31    34    1
    22    31    39    1
    23    32    35    1
    24    32    40    1
    25    41    42    1
    26    41    43    1
    27    15    19    2
    28    16    22    2
    29    17    12    1
    30    17    19   ar
    31    17    20   ar
    32    18    19   ar
    33    18    22   ar
    34    18    23    1
    35     9    10    1
    36     9    11    1
    37    10    12    1
    38    11     5    1
    39    33    34    1
    40    33    35    1
    41    34    36    1
    42    35    37    1
    43    36    42    1
    44    20    21   ar
    45    21    22   ar
@<TRIPOS>MOLECULE
*****
 43 45 0 0 0
SMALL
GASTEIGER

@<TRIPOS>ATOM
      1 P          19.3444   69.8902   -3.2971 P.3     1  UNL1        0.2189
      2 O          18.9927   69.5160   -4.8312 O.co2   1  UNL1       -0.4371
      3 O          18.6624   69.0407   -2.2652 O.2     1  UNL1       -0.5170
      4 O          19.0485   71.4783   -3.2069 O.3     1  UNL1       -0.3112
      5 C          17.8968   71.9893   -3.8551 C.3     1  UNL1        0.1811
      6 O          19.0077   73.4594   -5.3974 O.3     1  UNL1       -0.3308
      7 O          17.1069   75.5787   -4.4560 O.3     1  UNL1       -0.3794
      8 O          16.0074   74.8055   -6.8287 O.3     1  UNL1       -0.3779
      9 C          16.8799   74.1832   -4.6464 C.3     1  UNL1        0.1713
     10 C          16.7880   73.8621   -6.1235 C.3     1  UNL1        0.1895
     11 C          18.1466   73.4417   -4.2379 C.3     1  UNL1        0.1764
     12 C          18.2484   73.8821   -6.5418 C.3     1  UNL1        0.2383
     13 H          16.3113   76.0732   -4.7100 H       1  UNL1        0.2105
     14 H          15.0870   74.7539   -6.5272 H       1  UNL1        0.2106
     15 O          17.8912   74.5432   -9.2645 O.2     1  UNL1       -0.2464
     16 O          19.3109   70.3832  -10.6501 O.2     1  UNL1       -0.2670
     17 N          18.5173   72.9910   -7.6349 N.ar    1  UNL1       -0.2551
     18 N          18.5986   72.4714   -9.9522 N.ar    1  UNL1       -0.2743
     19 C          18.3037   73.4207   -8.9654 C.ar    1  UNL1        0.3323
     20 C          18.9878   71.7069   -7.3825 C.ar    1  UNL1        0.0869
     21 C          19.2630   70.8132   -8.3348 C.ar    1  UNL1        0.0795
     22 C          19.0670   71.1826   -9.7515 C.ar    1  UNL1        0.2626
     23 H          18.4570   72.7483  -10.8865 H       1  UNL1        0.1734
     24 O          20.9590   69.8191   -3.2666 O.3     1  UNL1       -0.2703
     25 P          22.0666   70.9606   -2.9781 P.3     1  UNL1        0.2208
     26 O          21.6385   72.1550   -3.9819 O.co2   1  UNL1       -0.4371
     27 O          23.4852   70.4959   -3.1380 O.2     1  UNL1       -0.5170
     28 O          21.7066   71.5163   -1.5062 O.3     1  UNL1       -0.2858
     29 O          23.2726   72.9194   -0.4127 O.3     1  UNL1       -0.3258
     30 O          21.0660   71.7146    2.8630 O.3     1  UNL1       -0.3794
     31 O          20.8020   74.4025    1.8864 O.3     1  UNL1       -0.3794
     32 O          21.6416   69.8341    0.7390 O.3     1  UNL1       -0.3775
     33 C          21.2740   72.0899    1.4988 C.3     1  UNL1        0.1715
     34 C          21.8355   73.5129    1.4731 C.3     1  UNL1        0.1694
     35 C          22.2566   71.1125    0.8564 C.3     1  UNL1        0.1967
     36 C          22.3332   73.8868    0.0704 C.3     1  UNL1        0.1761
     37 C          22.7264   71.6029   -0.5143 C.3     1  UNL1        0.2704
     38 H          20.4426   72.3310    3.2766 H       1  UNL1        0.2105
     39 H          20.4963   74.1551    2.7733 H       1  UNL1        0.2105
     40 H          21.3489   69.5346    1.6133 H       1  UNL1        0.2106
     41 O          24.1058   75.1814   -0.8736 O.3     1  UNL1       -0.3794
     42 C          23.0400   75.2405    0.0564 C.3     1  UNL1        0.1693
     43 H          24.5645   76.0363   -0.8935 H       1  UNL1        0.2105
@<TRIPOS>UNITY_ATOM_ATTR
2 1
charge -1
26 1
charge -1
@<TRIPOS>BOND
     1    25    28    1
     2    25    24    1
     3    25    26    1
     4    25    27    2
     5     1     4    1
     6     1    24    1
     7     1     2    1
     8     1     3    2
     9     6    11    1
    10     6    12    1
    11    29    36    1
    12    29    37    1
    13     7     9    1
    14     7    13    1
    15     8    10    1
    16     8    14    1
    17    28    37    1
    18     4     5    1
    19    30    33    1
    20    30    38    1
    21    31    34    1
    22    31    39    1
    23    32    35    1
    24    32    40    1
    25    41    42    1
    26    41    43    1
    27    15    19    2
    28    16    22    2
    29    17    12    1
    30    17    19   ar
    31    17    20   ar
    32    18    19   ar
    33    18    22   ar
    34    18    23    1
    35     9    10    1
    36     9    11    1
    37    10    12    1
    38    11     5    1
    39    33    34    1
    40    33    35    1
    41    34    36    1
    42    35    37    1
    43    36    42    1
    44    20    21   ar
    45    21    22   ar
@<TRIPOS>MOLECULE
*****
 43 45 0 0 0
SMALL
GASTEIGER

@<TRIPOS>ATOM
      1 P          23.1728   73.4179   -4.1207 P.3     1  UNL1        0.2189
      2 O          22.1304   74.2936   -3.2467 O.co2   1  UNL1       -0.4371
      3 O          24.6201   73.7389   -3.8892 O.2     1  UNL1       -0.5170
      4 O          22.6486   73.5939   -5.6412 O.3     1  UNL1       -0.3112
      5 C          21.5515   74.4577   -5.8825 C.3     1  UNL1        0.1811
      6 O          20.8598   73.5708   -8.0058 O.3     1  UNL1       -0.3308
      7 O          20.9282   76.3994   -8.9986 O.3     1  UNL1       -0.3794
      8 O          18.2672   75.9837   -8.5709 O.3     1  UNL1       -0.3779
      9 C          20.5427   75.9016   -7.7184 C.3     1  UNL1        0.1713
     10 C          19.1852   75.2352   -7.8003 C.3     1  UNL1        0.1895
     11 C          21.4529   74.7283   -7.3775 C.3     1  UNL1        0.1764
     12 C          19.5283   73.8984   -8.4354 C.3     1  UNL1        0.2383
     13 H          20.3610   77.1497   -9.2377 H       1  UNL1        0.2105
     14 H          18.0810   76.8248   -8.1252 H       1  UNL1        0.2106
     15 O          20.3597   71.3619   -7.5119 O.2     1  UNL1       -0.2464
     16 O          16.0134   69.9608   -6.8895 O.2     1  UNL1       -0.2670
     17 N          18.6352   72.8518   -8.0251 N.ar    1  UNL1       -0.2551
     18 N          18.1949   70.6664   -7.2026 N.ar    1  UNL1       -0.2743
     19 C          19.1550   71.6146   -7.5784 C.ar    1  UNL1        0.3323
     20 C          17.2605   73.0575   -8.0676 C.ar    1  UNL1        0.0869
     21 C          16.3582   72.1426   -7.7069 C.ar    1  UNL1        0.0795
     22 C          16.8181   70.8230   -7.2282 C.ar    1  UNL1        0.2626
     23 H          18.5337   69.7968   -6.8884 H       1  UNL1        0.1734
     24 O          22.7561   71.8968   -3.7665 O.3     1  UNL1       -0.2703
     25 P          21.4338   71.2962   -3.0568 P.3     1  UNL1        0.2208
     26 O          21.8126   69.7409   -2.8221 O.co2   1  UNL1       -0.4371
     27 O          20.1665   71.5148   -3.8314 O.2     1  UNL1       -0.5170
     28 O          21.4341   71.9434   -1.5782 O.3     1  UNL1       -0.2858
     29 O          23.2970   72.9516   -0.5154 O.3     1  UNL1       -0.3258
     30 O          21.3007   71.5688    2.8243 O.3     1  UNL1       -0.3794
     31 O          21.3313   74.3836    2.2549 O.3     1  UNL1       -0.3794
     32 O          21.3633   69.9677    0.4135 O.3     1  UNL1       -0.3775
     33 C          21.4144   72.1133    1.5067 C.3     1  UNL1        0.1715
     34 C          22.1728   73.4388    1.5994 C.3     1  UNL1        0.1694
     35 C          22.1684   71.1233    0.6209 C.3     1  UNL1        0.1967
     36 C          22.5670   73.9500    0.2072 C.3     1  UNL1        0.1761
     37 C          22.5557   71.7474   -0.7210 C.3     1  UNL1        0.2704
     38 H          20.8224   72.1923    3.3917 H       1  UNL1        0.2105
     39 H          21.0892   74.0485    3.1326 H       1  UNL1        0.2105
     40 H          21.1251   69.5817    1.2703 H       1  UNL1        0.2106
     41 O          23.5870   75.7301   -1.0176 O.3     1  UNL1       -0.3794
     42 C          23.4592   75.1871    0.2836 C.3     1  UNL1        0.1693
     43 H          24.1521   76.5183   -0.9843 H       1  UNL1        0.2105
@<TRIPOS>UNITY_ATOM_ATTR
2 1
charge -1
26 1
charge -1
@<TRIPOS>BOND
     1    25    28    1
     2    25    24    1
     3    25    26    1
     4    25    27    2
     5     1     4    1
     6     1    24    1
     7     1     2    1
     8     1     3    2
     9     6    11    1
    10     6    12    1
    11    29    36    1
    12    29    37    1
    13     7     9    1
    14     7    13    1
    15     8    10    1
    16     8    14    1
    17    28    37    1
    18     4     5    1
    19    30    33    1
    20    30    38    1
    21    31    34    1
    22    31    39    1
    23    32    35    1
    24    32    40    1
    25    41    42    1
    26    41    43    1
    27    15    19    2
    28    16    22    2
    29    17    12    1
    30    17    19   ar
    31    17    20   ar
    32    18    19   ar
    33    18    22   ar
    34    18    23    1
    35     9    10    1
    36     9    11    1
    37    10    12    1
    38    11     5    1
    39    33    34    1
    40    33    35    1
    41    34    36    1
    42    35    37    1
    43    36    42    1
    44    20    21   ar
    45    21    22   ar
@<TRIPOS>MOLECULE
*****
 43 45 0 0 0
SMALL
GASTEIGER

@<TRIPOS>ATOM
      1 P          22.0345   74.9717   -7.4454 P.3     1  UNL1        0.2189
      2 O          21.0040   76.1479   -7.8601 O.co2   1  UNL1       -0.4371
      3 O          23.4749   75.3863   -7.3760 O.2     1  UNL1       -0.5170
      4 O          21.6967   73.7761   -8.4819 O.3     1  UNL1       -0.3112
      5 C          21.3944   72.4939   -7.9599 C.3     1  UNL1        0.1811
      6 O          19.9105   70.6206   -8.2095 O.3     1  UNL1       -0.3308
      7 O          18.5705   72.2091  -10.3709 O.3     1  UNL1       -0.3794
      8 O          16.8939   72.5599   -8.2490 O.3     1  UNL1       -0.3779
      9 C          19.1507   72.6596   -9.1479 C.3     1  UNL1        0.1713
     10 C          18.2568   72.3023   -7.9788 C.3     1  UNL1        0.1895
     11 C          20.3864   71.8113   -8.8743 C.3     1  UNL1        0.1764
     12 C          18.5478   70.8219   -7.8005 C.3     1  UNL1        0.2383
     13 H          17.7796   72.7364  -10.5669 H       1  UNL1        0.2105
     14 H          16.7598   73.5147   -8.3542 H       1  UNL1        0.2106
     15 O          16.1450   69.8458   -6.6817 O.2     1  UNL1       -0.2464
     16 O          18.1061   69.2160   -2.5588 O.2     1  UNL1       -0.2670
     17 N          18.4023   70.3955   -6.4373 N.ar    1  UNL1       -0.2551
     18 N          17.1235   69.5329   -4.6298 N.ar    1  UNL1       -0.2743
     19 C          17.1520   69.9226   -5.9749 C.ar    1  UNL1        0.3323
     20 C          19.4917   70.4481   -5.5746 C.ar    1  UNL1        0.0869
     21 C          19.4476   70.0739   -4.2943 C.ar    1  UNL1        0.0795
     22 C          18.1788   69.5677   -3.7322 C.ar    1  UNL1        0.2626
     23 H          16.2629   69.2004   -4.2854 H       1  UNL1        0.1734
     24 O          21.4231   74.4276   -6.0515 O.3     1  UNL1       -0.2703
     25 P          21.1928   75.1673   -4.6328 P.3     1  UNL1        0.2208
     26 O          19.6401   75.6172   -4.6966 O.co2   1  UNL1       -0.4371
     27 O          22.1521   76.2899   -4.3612 O.2     1  UNL1       -0.5170
     28 O          21.2283   73.9785   -3.5417 O.3     1  UNL1       -0.2858
     29 O          22.0107   73.5817   -1.3401 O.3     1  UNL1       -0.3258
     30 O          23.7663   70.3708   -3.2530 O.3     1  UNL1       -0.3794
     31 O          21.5350   69.9297   -1.4995 O.3     1  UNL1       -0.3794
     32 O          23.6183   72.9384   -4.5816 O.3     1  UNL1       -0.3775
     33 C          22.7444   71.3403   -3.0056 C.3     1  UNL1        0.1715
     34 C          22.2501   71.1601   -1.5689 C.3     1  UNL1        0.1694
     35 C          23.3253   72.7393   -3.2029 C.3     1  UNL1        0.1967
     36 C          21.3488   72.3268   -1.1427 C.3     1  UNL1        0.1761
     37 C          22.3694   73.8235   -2.7020 C.3     1  UNL1        0.2704
     38 H          23.4039   69.4803   -3.1299 H       1  UNL1        0.2105
     39 H          22.1152   69.2013   -1.7716 H       1  UNL1        0.2105
     40 H          24.2244   72.2459   -4.8865 H       1  UNL1        0.2106
     41 O          21.6385   71.1394    0.9103 O.3     1  UNL1       -0.3794
     42 C          20.9725   72.2485    0.3352 C.3     1  UNL1        0.1693
     43 H          21.4086   71.0773    1.8511 H       1  UNL1        0.2105
@<TRIPOS>UNITY_ATOM_ATTR
2 1
charge -1
26 1
charge -1
@<TRIPOS>BOND
     1    25    28    1
     2    25    24    1
     3    25    26    1
     4    25    27    2
     5     1     4    1
     6     1    24    1
     7     1     2    1
     8     1     3    2
     9     6    11    1
    10     6    12    1
    11    29    36    1
    12    29    37    1
    13     7     9    1
    14     7    13    1
    15     8    10    1
    16     8    14    1
    17    28    37    1
    18     4     5    1
    19    30    33    1
    20    30    38    1
    21    31    34    1
    22    31    39    1
    23    32    35    1
    24    32    40    1
    25    41    42    1
    26    41    43    1
    27    15    19    2
    28    16    22    2
    29    17    12    1
    30    17    19   ar
    31    17    20   ar
    32    18    19   ar
    33    18    22   ar
    34    18    23    1
    35     9    10    1
    36     9    11    1
    37    10    12    1
    38    11     5    1
    39    33    34    1
    40    33    35    1
    41    34    36    1
    42    35    37    1
    43    36    42    1
    44    20    21   ar
    45    21    22   ar
@<TRIPOS>MOLECULE
*****
 43 45 0 0 0
SMALL
GASTEIGER

@<TRIPOS>ATOM
      1 P          20.5134   70.4882   -2.3102 P.3     1  UNL1        0.2189
      2 O          21.9504   69.9421   -2.8145 O.co2   1  UNL1       -0.4371
      3 O          19.4654   69.4316   -2.1190 O.2     1  UNL1       -0.5170
      4 O          20.1486   71.6564   -3.3686 O.3     1  UNL1       -0.3112
      5 C          19.5421   71.2913   -4.5960 C.3     1  UNL1        0.1811
      6 O          19.7984   71.5231   -6.9739 O.3     1  UNL1       -0.3308
      7 O          22.4379   72.8136   -6.3752 O.3     1  UNL1       -0.3794
      8 O          20.8309   74.9566   -6.8868 O.3     1  UNL1       -0.3779
      9 C          21.2096   72.8953   -5.6543 C.3     1  UNL1        0.1713
     10 C          20.2255   73.7801   -6.3908 C.3     1  UNL1        0.1895
     11 C          20.5303   71.5335   -5.7287 C.3     1  UNL1        0.1764
     12 C          19.7420   72.8597   -7.4985 C.3     1  UNL1        0.2383
     13 H          22.8901   73.6717   -6.3416 H       1  UNL1        0.2105
     14 H          21.1214   75.5087   -6.1441 H       1  UNL1        0.2106
     15 O          17.7518   70.9006   -7.9217 O.2     1  UNL1       -0.2464
     16 O          14.6039   74.0766   -9.0373 O.2     1  UNL1       -0.2670
     17 N          18.3936   73.1466   -7.8996 N.ar    1  UNL1       -0.2551
     18 N          16.1859   72.4836   -8.4766 N.ar    1  UNL1       -0.2743
     19 C          17.4722   72.0899   -8.0860 C.ar    1  UNL1        0.3323
     20 C          17.9968   74.4637   -8.1037 C.ar    1  UNL1        0.0869
     21 C          16.7667   74.8224   -8.4774 C.ar    1  UNL1        0.0795
     22 C          15.7436   73.7790   -8.6934 C.ar    1  UNL1        0.2626
     23 H          15.5272   71.7644   -8.6128 H       1  UNL1        0.1734
     24 O          20.8878   71.3143   -0.9721 O.3     1  UNL1       -0.2703
     25 P          21.7757   70.9044    0.3150 P.3     1  UNL1        0.2208
     26 O          23.1891   71.6427    0.0410 O.co2   1  UNL1       -0.4371
     27 O          21.8840   69.4243    0.5417 O.2     1  UNL1       -0.5170
     28 O          21.1194   71.7227    1.5415 O.3     1  UNL1       -0.2858
     29 O          21.4165   74.0730    1.4738 O.3     1  UNL1       -0.3258
     30 O          20.2286   73.6712    5.4081 O.3     1  UNL1       -0.3794
     31 O          18.4231   74.8185    3.4919 O.3     1  UNL1       -0.3794
     32 O          21.9694   71.6894    4.2157 O.3     1  UNL1       -0.3775
     33 C          20.2434   73.3570    4.0129 C.3     1  UNL1        0.1715
     34 C          19.8080   74.6013    3.2365 C.3     1  UNL1        0.1694
     35 C          21.6564   72.9391    3.6103 C.3     1  UNL1        0.1967
     36 C          20.0532   74.4292    1.7314 C.3     1  UNL1        0.1761
     37 C          21.8060   72.8444    2.0908 C.3     1  UNL1        0.2704
     38 H          19.3341   73.9368    5.6703 H       1  UNL1        0.2105
     39 H          18.2818   74.9251    4.4458 H       1  UNL1        0.2105
     40 H          21.8713   71.7625    5.1774 H       1  UNL1        0.2106
     41 O          21.0029   76.2233    0.4712 O.3     1  UNL1       -0.3794
     42 C          19.7737   75.7146    0.9557 C.3     1  UNL1        0.1693
     43 H          20.8405   77.0414   -0.0249 H       1  UNL1        0.2105
@<TRIPOS>UNITY_ATOM_ATTR
2 1
charge -1
26 1
charge -1
@<TRIPOS>BOND
     1    25    28    1
     2    25    24    1
     3    25    26    1
     4    25    27    2
     5     1     4    1
     6     1    24    1
     7     1     2    1
     8     1     3    2
     9     6    11    1
    10     6    12    1
    11    29    36    1
    12    29    37    1
    13     7     9    1
    14     7    13    1
    15     8    10    1
    16     8    14    1
    17    28    37    1
    18     4     5    1
    19    30    33    1
    20    30    38    1
    21    31    34    1
    22    31    39    1
    23    32    35    1
    24    32    40    1
    25    41    42    1
    26    41    43    1
    27    15    19    2
    28    16    22    2
    29    17    12    1
    30    17    19   ar
    31    17    20   ar
    32    18    19   ar
    33    18    22   ar
    34    18    23    1
    35     9    10    1
    36     9    11    1
    37    10    12    1
    38    11     5    1
    39    33    34    1
    40    33    35    1
    41    34    36    1
    42    35    37    1
    43    36    42    1
    44    20    21   ar
    45    21    22   ar
