@<TRIPOS>MOLECULE
UDP-glaA
 43 45 0 0 0
SMALL
GASTEIGER

@<TRIPOS>ATOM
      1 P          22.1992   71.6208   -3.1863 P.3     1  UNL1        0.2189
      2 O          21.6745   73.1401   -3.0029 O.3     1  UNL1       -0.4371
      3 O          23.6473   71.4918   -3.5585 O.2     1  UNL1       -0.5170
      4 O          21.1456   70.9674   -4.2249 O.3     1  UNL1       -0.3112
      5 C          20.2255   70.0041   -3.7403 C.3     1  UNL1        0.1811
      6 O          18.5878   71.3923   -4.8198 O.3     1  UNL1       -0.3308
      7 O          16.6222   70.2883   -2.8427 O.3     1  UNL1       -0.3794
      8 O          16.0827   68.8413   -5.0900 O.3     1  UNL1       -0.3779
      9 C          17.7216   69.6397   -3.4816 C.3     1  UNL1        0.1713
     10 C          17.3908   69.3503   -4.9305 C.3     1  UNL1        0.1895
     11 C          18.8538   70.6505   -3.6089 C.3     1  UNL1        0.1764
     12 C          17.5688   70.7151   -5.5737 C.3     1  UNL1        0.2383
     13 H          16.8939   70.4885   -1.9307 H       1  UNL1        0.2105
     14 H          16.0190   68.0272   -4.5615 H       1  UNL1        0.2106
     15 O          15.8139   70.3091   -7.7488 O.2     1  UNL1       -0.2464
     16 O          19.2746   70.3842  -10.7913 O.2     1  UNL1       -0.2670
     17 N          17.9839   70.6251   -6.9444 N.ar    1  UNL1       -0.2551
     18 N          17.5384   70.3462   -9.2623 N.ar    1  UNL1       -0.2743
     19 C          17.0228   70.4190   -7.9616 C.ar    1  UNL1        0.3323
     20 C          19.3308   70.7407   -7.2698 C.ar    1  UNL1        0.0869
     21 C          19.8066   70.6695   -8.5149 C.ar    1  UNL1        0.0795
     22 C          18.8692   70.4549   -9.6352 C.ar    1  UNL1        0.2626
     23 H          16.8657   70.1978  -10.0097 H       1  UNL1        0.1734
     24 O          21.8008   70.9276   -1.7806 O.3     1  UNL1       -0.2703
     25 P          21.1880   71.5574   -0.4240 P.3     1  UNL1        0.2208
     26 O          21.1056   70.2853    0.5715 O.3     1  UNL1       -0.4371
     27 O          19.8857   72.2811   -0.6144 O.2     1  UNL1       -0.5170
     28 O          22.3760   72.4697    0.1764 O.3     1  UNL1       -0.2858
     29 O          23.4682   71.7779    2.1583 O.3     1  UNL1       -0.3226
     30 O          24.5765   75.7761    1.9032 O.3     1  UNL1       -0.3794
     31 O          21.8521   74.9504    1.2691 O.3     1  UNL1       -0.3775
     32 O          25.2627   73.6005    3.4607 O.3     1  UNL1       -0.3792
     33 C          24.2266   74.4684    1.4586 C.3     1  UNL1        0.1718
     34 C          22.8067   74.1120    1.9115 C.3     1  UNL1        0.1968
     35 C          25.2282   73.4645    2.0362 C.3     1  UNL1        0.1723
     36 C          22.4848   72.6477    1.5880 C.3     1  UNL1        0.2706
     37 C          24.7890   72.0437    1.6888 C.3     1  UNL1        0.1830
     38 H          25.4813   75.9578    1.5969 H       1  UNL1        0.2105
     39 H          20.9706   74.6822    1.5786 H       1  UNL1        0.2106
     40 H          24.4484   73.2163    3.8275 H       1  UNL1        0.2106
     41 O          24.9401   69.9537    2.7437 O.co2   1  UNL1       -0.5466
     42 O          26.8751   71.1331    2.4944 O.co2   1  UNL1       -0.5466
     43 C          25.6670   71.0244    2.3423 C.2     1  UNL1        0.0799
@<TRIPOS>UNITY_ATOM_ATTR
41 1
charge -1
@<TRIPOS>BOND
     1     1     4    1
     2     1    24    1
     3     1     2    1
     4     1     3    2
     5    25    28    1
     6    25    24    1
     7    25    26    1
     8    25    27    2
     9     6    11    1
    10     6    12    1
    11    29    36    1
    12    29    37    1
    13     7     9    1
    14     7    13    1
    15     8    10    1
    16     8    14    1
    17     4     5    1
    18    28    36    1
    19    30    33    1
    20    30    38    1
    21    31    34    1
    22    31    39    1
    23    32    35    1
    24    32    40    1
    25    41    43   ar
    26    15    19    2
    27    42    43   ar
    28    16    22    2
    29    17    12    1
    30    17    19   ar
    31    17    20   ar
    32    18    19   ar
    33    18    22   ar
    34    18    23    1
    35     9    10    1
    36     9    11    1
    37    10    12    1
    38    11     5    1
    39    33    34    1
    40    33    35    1
    41    34    36    1
    42    35    37    1
    43    37    43    1
    44    20    21   ar
    45    21    22   ar
@<TRIPOS>MOLECULE
UDP-glaA
 43 45 0 0 0
SMALL
GASTEIGER

@<TRIPOS>ATOM
      1 P          21.6158   71.5719   -2.4930 P.3     1  UNL1        0.2189
      2 O          20.9538   72.8536   -3.2253 O.3     1  UNL1       -0.4371
      3 O          22.8271   71.0081   -3.1764 O.2     1  UNL1       -0.5170
      4 O          20.3772   70.5497   -2.3016 O.3     1  UNL1       -0.3112
      5 C          19.7093   70.0709   -3.4565 C.3     1  UNL1        0.1811
      6 O          18.0427   71.3284   -4.6463 O.3     1  UNL1       -0.3308
      7 O          16.0278   69.9480   -2.9067 O.3     1  UNL1       -0.3794
      8 O          15.8576   68.5485   -5.2408 O.3     1  UNL1       -0.3779
      9 C          17.2447   69.4423   -3.4553 C.3     1  UNL1        0.1713
     10 C          17.0838   69.1813   -4.9381 C.3     1  UNL1        0.1895
     11 C          18.2707   70.5678   -3.4394 C.3     1  UNL1        0.1764
     12 C          17.1762   70.5828   -5.5172 C.3     1  UNL1        0.2383
     13 H          16.1901   70.1366   -1.9666 H       1  UNL1        0.2105
     14 H          15.8309   67.7108   -4.7470 H       1  UNL1        0.2106
     15 O          15.6519   70.2993   -7.8777 O.2     1  UNL1       -0.2464
     16 O          19.3912   70.6349  -10.5505 O.2     1  UNL1       -0.2670
     17 N          17.7252   70.5929   -6.8430 N.ar    1  UNL1       -0.2551
     18 N          17.5150   70.4661   -9.2070 N.ar    1  UNL1       -0.2743
     19 C          16.8731   70.4420   -7.9619 C.ar    1  UNL1        0.3323
     20 C          19.0947   70.7511   -7.0249 C.ar    1  UNL1        0.0869
     21 C          19.6915   70.7724   -8.2187 C.ar    1  UNL1        0.0795
     22 C          18.8731   70.6203   -9.4381 C.ar    1  UNL1        0.2626
     23 H          16.9221   70.3587  -10.0256 H       1  UNL1        0.1734
     24 O          21.8789   72.1089   -0.9905 O.3     1  UNL1       -0.2703
     25 P          22.4300   71.3495    0.3256 P.3     1  UNL1        0.2208
     26 O          23.8914   70.8283   -0.1314 O.3     1  UNL1       -0.4371
     27 O          21.5204   70.2711    0.8407 O.2     1  UNL1       -0.5170
     28 O          22.7300   72.5304    1.3836 O.3     1  UNL1       -0.2858
     29 O          24.4748   72.7622    2.9652 O.3     1  UNL1       -0.3226
     30 O          21.3001   74.6317    4.8902 O.3     1  UNL1       -0.3794
     31 O          20.8810   72.1599    3.4002 O.3     1  UNL1       -0.3775
     32 O          24.0143   74.3443    5.3154 O.3     1  UNL1       -0.3792
     33 C          22.1284   74.2045    3.8124 C.3     1  UNL1        0.1718
     34 C          22.1643   72.6742    3.7400 C.3     1  UNL1        0.1968
     35 C          23.5421   74.7521    4.0271 C.3     1  UNL1        0.1723
     36 C          23.1847   72.2036    2.6961 C.3     1  UNL1        0.2706
     37 C          24.4781   74.1890    2.9599 C.3     1  UNL1        0.1830
     38 H          21.3090   75.6040    4.8995 H       1  UNL1        0.2105
     39 H          20.9550   71.1917    3.3569 H       1  UNL1        0.2106
     40 H          24.2323   73.3976    5.2791 H       1  UNL1        0.2106
     41 O          26.5483   73.6442    3.9197 O.co2   1  UNL1       -0.5466
     42 O          26.4059   75.6359    2.8198 O.co2   1  UNL1       -0.5466
     43 C          25.8965   74.5943    3.2070 C.2     1  UNL1        0.0799
@<TRIPOS>UNITY_ATOM_ATTR
41 1
charge -1
@<TRIPOS>BOND
     1     1     4    1
     2     1    24    1
     3     1     2    1
     4     1     3    2
     5    25    28    1
     6    25    24    1
     7    25    26    1
     8    25    27    2
     9     6    11    1
    10     6    12    1
    11    29    36    1
    12    29    37    1
    13     7     9    1
    14     7    13    1
    15     8    10    1
    16     8    14    1
    17     4     5    1
    18    28    36    1
    19    30    33    1
    20    30    38    1
    21    31    34    1
    22    31    39    1
    23    32    35    1
    24    32    40    1
    25    41    43   ar
    26    15    19    2
    27    42    43   ar
    28    16    22    2
    29    17    12    1
    30    17    19   ar
    31    17    20   ar
    32    18    19   ar
    33    18    22   ar
    34    18    23    1
    35     9    10    1
    36     9    11    1
    37    10    12    1
    38    11     5    1
    39    33    34    1
    40    33    35    1
    41    34    36    1
    42    35    37    1
    43    37    43    1
    44    20    21   ar
    45    21    22   ar
@<TRIPOS>MOLECULE
UDP-glaA
 43 45 0 0 0
SMALL
GASTEIGER

@<TRIPOS>ATOM
      1 P          21.5189   73.7879   -5.0479 P.3     1  UNL1        0.2189
      2 O          21.1895   75.2175   -5.7300 O.3     1  UNL1       -0.4371
      3 O          21.9253   72.7076   -6.0071 O.2     1  UNL1       -0.5170
      4 O          20.2114   73.4744   -4.1491 O.3     1  UNL1       -0.3112
      5 C          19.9225   72.1262   -3.8206 C.3     1  UNL1        0.1811
      6 O          17.8528   72.1766   -5.0404 O.3     1  UNL1       -0.3308
      7 O          16.6882   70.6131   -2.7621 O.3     1  UNL1       -0.3794
      8 O          17.1223   68.6887   -4.6446 O.3     1  UNL1       -0.3779
      9 C          17.9946   70.5405   -3.3329 C.3     1  UNL1        0.1713
     10 C          17.9438   69.8375   -4.6730 C.3     1  UNL1        0.1895
     11 C          18.4135   71.9504   -3.7283 C.3     1  UNL1        0.1764
     12 C          17.3948   70.9257   -5.5798 C.3     1  UNL1        0.2383
     13 H          16.7641   71.1043   -1.9263 H       1  UNL1        0.2105
     14 H          17.4782   68.0910   -3.9647 H       1  UNL1        0.2106
     15 O          15.7549   70.2565   -7.7794 O.2     1  UNL1       -0.2464
     16 O          19.2970   70.4723  -10.7197 O.2     1  UNL1       -0.2670
     17 N          17.8619   70.8008   -6.9310 N.ar    1  UNL1       -0.2551
     18 N          17.5199   70.3639   -9.2420 N.ar    1  UNL1       -0.2743
     19 C          16.9565   70.4595   -7.9628 C.ar    1  UNL1        0.3323
     20 C          19.2043   71.0153   -7.2230 C.ar    1  UNL1        0.0869
     21 C          19.7260   70.9208   -8.4480 C.ar    1  UNL1        0.0795
     22 C          18.8484   70.5678   -9.5815 C.ar    1  UNL1        0.2626
     23 H          16.8877   70.1190   -9.9993 H       1  UNL1        0.1734
     24 O          22.6380   74.1631   -3.9425 O.3     1  UNL1       -0.2703
     25 P          23.8996   73.3217   -3.3831 P.3     1  UNL1        0.2208
     26 O          25.1726   74.1163   -3.9867 O.3     1  UNL1       -0.4371
     27 O          23.8639   71.8591   -3.7226 O.2     1  UNL1       -0.5170
     28 O          23.9332   73.6383   -1.8011 O.3     1  UNL1       -0.2858
     29 O          21.8728   72.9290   -0.8787 O.3     1  UNL1       -0.3226
     30 O          23.8407   74.4499    2.4520 O.3     1  UNL1       -0.3794
     31 O          23.9949   75.8242   -0.1157 O.3     1  UNL1       -0.3775
     32 O          21.5191   73.0338    1.9678 O.3     1  UNL1       -0.3792
     33 C          23.6744   73.8021    1.1938 C.3     1  UNL1        0.1718
     34 C          23.0787   74.7721    0.1679 C.3     1  UNL1        0.1968
     35 C          22.7471   72.5974    1.3758 C.3     1  UNL1        0.1723
     36 C          22.7366   74.0409   -1.1362 C.3     1  UNL1        0.2706
     37 C          22.4425   71.9741    0.0154 C.3     1  UNL1        0.1830
     38 H          24.2170   73.7996    3.0693 H       1  UNL1        0.2105
     39 H          23.5793   76.4055   -0.7747 H       1  UNL1        0.2106
     40 H          21.0037   73.5098    1.2948 H       1  UNL1        0.2106
     41 O          21.6606   70.1355    1.2451 O.co2   1  UNL1       -0.5466
     42 O          20.5327   70.6626   -0.6646 O.co2   1  UNL1       -0.5466
     43 C          21.4369   70.8730    0.1307 C.2     1  UNL1        0.0799
@<TRIPOS>UNITY_ATOM_ATTR
41 1
charge -1
@<TRIPOS>BOND
     1     1     4    1
     2     1    24    1
     3     1     2    1
     4     1     3    2
     5    25    28    1
     6    25    24    1
     7    25    26    1
     8    25    27    2
     9     6    11    1
    10     6    12    1
    11    29    36    1
    12    29    37    1
    13     7     9    1
    14     7    13    1
    15     8    10    1
    16     8    14    1
    17     4     5    1
    18    28    36    1
    19    30    33    1
    20    30    38    1
    21    31    34    1
    22    31    39    1
    23    32    35    1
    24    32    40    1
    25    41    43   ar
    26    15    19    2
    27    42    43   ar
    28    16    22    2
    29    17    12    1
    30    17    19   ar
    31    17    20   ar
    32    18    19   ar
    33    18    22   ar
    34    18    23    1
    35     9    10    1
    36     9    11    1
    37    10    12    1
    38    11     5    1
    39    33    34    1
    40    33    35    1
    41    34    36    1
    42    35    37    1
    43    37    43    1
    44    20    21   ar
    45    21    22   ar
@<TRIPOS>MOLECULE
UDP-glaA
 43 45 0 0 0
SMALL
GASTEIGER

@<TRIPOS>ATOM
      1 P          22.9697   72.6217   -3.9510 P.3     1  UNL1        0.2189
      2 O          24.1637   71.6538   -3.4461 O.3     1  UNL1       -0.4371
      3 O          23.1278   73.1458   -5.3483 O.2     1  UNL1       -0.5170
      4 O          22.8576   73.7409   -2.7889 O.3     1  UNL1       -0.3112
      5 C          23.4930   73.4933   -1.5463 C.3     1  UNL1        0.1811
      6 O          23.2613   71.8554    0.1967 O.3     1  UNL1       -0.3308
      7 O          20.5928   73.1028    0.7574 O.3     1  UNL1       -0.3794
      8 O          22.1693   74.1656    2.7120 O.3     1  UNL1       -0.3779
      9 C          21.8116   73.7230    0.3483 C.3     1  UNL1        0.1713
     10 C          22.7885   73.7743    1.5041 C.3     1  UNL1        0.1895
     11 C          22.5147   72.7827   -0.6218 C.3     1  UNL1        0.1764
     12 C          23.3017   72.3450    1.5473 C.3     1  UNL1        0.2383
     13 H          20.0147   73.0570   -0.0232 H       1  UNL1        0.2105
     14 H          21.7733   75.0422    2.5673 H       1  UNL1        0.2106
     15 O          24.7208   69.9298    1.9056 O.2     1  UNL1       -0.2464
     16 O          28.4663   72.1432    3.4258 O.2     1  UNL1       -0.2670
     17 N          24.6489   72.2608    2.0345 N.ar    1  UNL1       -0.2551
     18 N          26.5848   71.0335    2.6629 N.ar    1  UNL1       -0.2743
     19 C          25.2704   70.9985    2.1788 C.ar    1  UNL1        0.3323
     20 C          25.3405   73.4212    2.3642 C.ar    1  UNL1        0.0869
     21 C          26.5936   73.4380    2.8240 C.ar    1  UNL1        0.0795
     22 C          27.3139   72.1620    3.0045 C.ar    1  UNL1        0.2626
     23 H          27.0513   70.1375    2.7752 H       1  UNL1        0.1734
     24 O          21.6481   71.7200   -3.7153 O.3     1  UNL1       -0.2703
     25 P          20.0822   72.0571   -3.9316 P.3     1  UNL1        0.2208
     26 O          20.0056   73.6507   -3.6661 O.3     1  UNL1       -0.4371
     27 O          19.1530   71.2411   -3.0791 O.2     1  UNL1       -0.5170
     28 O          19.8446   71.8957   -5.5195 O.3     1  UNL1       -0.2858
     29 O          18.6162   69.9987   -6.2210 O.3     1  UNL1       -0.3226
     30 O          20.2318   71.3625   -9.8000 O.3     1  UNL1       -0.3794
     31 O          21.8301   71.3555   -7.3604 O.3     1  UNL1       -0.3775
     32 O          18.3849   69.4581   -9.0304 O.3     1  UNL1       -0.3792
     33 C          19.6785   71.4249   -8.4884 C.3     1  UNL1        0.1718
     34 C          20.5798   70.6873   -7.4925 C.3     1  UNL1        0.1968
     35 C          18.2867   70.7869   -8.5073 C.3     1  UNL1        0.1723
     36 C          19.9106   70.6007   -6.1152 C.3     1  UNL1        0.2706
     37 C          17.7355   70.7155   -7.0849 C.3     1  UNL1        0.1830
     38 H          19.6287   71.8388  -10.3958 H       1  UNL1        0.2105
     39 H          22.3612   70.8592   -6.7151 H       1  UNL1        0.2106
     40 H          18.7930   68.8898   -8.3554 H       1  UNL1        0.2106
     41 O          15.6400   70.3497   -8.0741 O.co2   1  UNL1       -0.5466
     42 O          16.1204   69.1599   -6.1898 O.co2   1  UNL1       -0.5466
     43 C          16.4329   69.9819   -7.0389 C.2     1  UNL1        0.0799
@<TRIPOS>UNITY_ATOM_ATTR
41 1
charge -1
@<TRIPOS>BOND
     1     1     4    1
     2     1    24    1
     3     1     2    1
     4     1     3    2
     5    25    28    1
     6    25    24    1
     7    25    26    1
     8    25    27    2
     9     6    11    1
    10     6    12    1
    11    29    36    1
    12    29    37    1
    13     7     9    1
    14     7    13    1
    15     8    10    1
    16     8    14    1
    17     4     5    1
    18    28    36    1
    19    30    33    1
    20    30    38    1
    21    31    34    1
    22    31    39    1
    23    32    35    1
    24    32    40    1
    25    41    43   ar
    26    15    19    2
    27    42    43   ar
    28    16    22    2
    29    17    12    1
    30    17    19   ar
    31    17    20   ar
    32    18    19   ar
    33    18    22   ar
    34    18    23    1
    35     9    10    1
    36     9    11    1
    37    10    12    1
    38    11     5    1
    39    33    34    1
    40    33    35    1
    41    34    36    1
    42    35    37    1
    43    37    43    1
    44    20    21   ar
    45    21    22   ar
@<TRIPOS>MOLECULE
UDP-glaA
 43 45 0 0 0
SMALL
GASTEIGER

@<TRIPOS>ATOM
      1 P          23.4760   73.5722   -4.1930 P.3     1  UNL1        0.2189
      2 O          22.7598   75.0110   -4.3776 O.3     1  UNL1       -0.4371
      3 O          24.9693   73.6217   -4.0531 O.2     1  UNL1       -0.5170
      4 O          22.9146   72.6958   -5.4309 O.3     1  UNL1       -0.3112
      5 C          21.5610   72.2760   -5.4050 C.3     1  UNL1        0.1811
      6 O          20.4781   70.3324   -6.3128 O.3     1  UNL1       -0.3308
      7 O          20.6442   71.7115   -8.9703 O.3     1  UNL1       -0.3794
      8 O          18.0536   72.1428   -8.2365 O.3     1  UNL1       -0.3779
      9 C          20.4160   72.2690   -7.6761 C.3     1  UNL1        0.1713
     10 C          19.0085   71.9594   -7.2117 C.3     1  UNL1        0.1895
     11 C          21.2602   71.4920   -6.6745 C.3     1  UNL1        0.1764
     12 C          19.1305   70.5078   -6.7802 C.3     1  UNL1        0.2383
     13 H          21.5678   71.9008   -9.2086 H       1  UNL1        0.2105
     14 H          18.1146   73.0677   -8.5312 H       1  UNL1        0.2106
     15 O          16.4314   69.7727   -7.1676 O.2     1  UNL1       -0.2464
     16 O          15.7354   69.2437   -2.6428 O.2     1  UNL1       -0.2670
     17 N          18.2215   70.1724   -5.7216 N.ar    1  UNL1       -0.2551
     18 N          16.0865   69.5103   -4.9141 N.ar    1  UNL1       -0.2743
     19 C          16.8859   69.8176   -6.0230 C.ar    1  UNL1        0.3323
     20 C          18.6561   70.1971   -4.4010 C.ar    1  UNL1        0.0869
     21 C          17.8818   69.9009   -3.3548 C.ar    1  UNL1        0.0795
     22 C          16.4736   69.5212   -3.5830 C.ar    1  UNL1        0.2626
     23 H          15.1222   69.2530   -5.1070 H       1  UNL1        0.1734
     24 O          22.7009   72.9422   -2.9212 O.3     1  UNL1       -0.2703
     25 P          22.8369   71.4997   -2.2047 P.3     1  UNL1        0.2208
     26 O          24.1796   70.8835   -2.8631 O.3     1  UNL1       -0.4371
     27 O          21.6223   70.6269   -2.3417 O.2     1  UNL1       -0.5170
     28 O          23.2469   71.8370   -0.6809 O.3     1  UNL1       -0.2858
     29 O          24.5338   70.8327    1.0323 O.3     1  UNL1       -0.3226
     30 O          21.1333   72.0438    3.0936 O.3     1  UNL1       -0.3794
     31 O          20.9134   70.8693    0.4331 O.3     1  UNL1       -0.3775
     32 O          23.6105   71.0094    3.7442 O.3     1  UNL1       -0.3792
     33 C          22.1750   72.0785    2.1221 C.3     1  UNL1        0.1718
     34 C          22.1022   70.8448    1.2160 C.3     1  UNL1        0.1968
     35 C          23.5245   72.1191    2.8443 C.3     1  UNL1        0.1723
     36 C          23.3164   70.7852    0.2809 C.3     1  UNL1        0.2706
     37 C          24.6560   72.0133    1.8241 C.3     1  UNL1        0.1830
     38 H          21.2195   72.8402    3.6448 H       1  UNL1        0.2105
     39 H          20.9161   70.0765   -0.1293 H       1  UNL1        0.2106
     40 H          23.7516   70.2002    3.2242 H       1  UNL1        0.2106
     41 O          26.2080   72.9999    3.2808 O.co2   1  UNL1       -0.5466
     42 O          26.7789   70.9947    2.3586 O.co2   1  UNL1       -0.5466
     43 C          25.9898   71.9185    2.4941 C.2     1  UNL1        0.0799
@<TRIPOS>UNITY_ATOM_ATTR
41 1
charge -1
@<TRIPOS>BOND
     1     1     4    1
     2     1    24    1
     3     1     2    1
     4     1     3    2
     5    25    28    1
     6    25    24    1
     7    25    26    1
     8    25    27    2
     9     6    11    1
    10     6    12    1
    11    29    36    1
    12    29    37    1
    13     7     9    1
    14     7    13    1
    15     8    10    1
    16     8    14    1
    17     4     5    1
    18    28    36    1
    19    30    33    1
    20    30    38    1
    21    31    34    1
    22    31    39    1
    23    32    35    1
    24    32    40    1
    25    41    43   ar
    26    15    19    2
    27    42    43   ar
    28    16    22    2
    29    17    12    1
    30    17    19   ar
    31    17    20   ar
    32    18    19   ar
    33    18    22   ar
    34    18    23    1
    35     9    10    1
    36     9    11    1
    37    10    12    1
    38    11     5    1
    39    33    34    1
    40    33    35    1
    41    34    36    1
    42    35    37    1
    43    37    43    1
    44    20    21   ar
    45    21    22   ar
@<TRIPOS>MOLECULE
UDP-glaA
 43 45 0 0 0
SMALL
GASTEIGER

@<TRIPOS>ATOM
      1 P          21.8910   71.8610   -1.9222 P.3     1  UNL1        0.2189
      2 O          20.8309   72.6721   -1.0080 O.3     1  UNL1       -0.4371
      3 O          22.6009   72.6885   -2.9534 O.2     1  UNL1       -0.5170
      4 O          21.0384   70.6097   -2.4903 O.3     1  UNL1       -0.3112
      5 C          20.4563   70.7156   -3.7785 C.3     1  UNL1        0.1811
      6 O          18.5644   71.7081   -4.8784 O.3     1  UNL1       -0.3308
      7 O          16.8902   70.4332   -2.7422 O.3     1  UNL1       -0.3794
      8 O          16.5457   68.7449   -4.8557 O.3     1  UNL1       -0.3779
      9 C          18.0667   69.9396   -3.3826 C.3     1  UNL1        0.1713
     10 C          17.7468   69.4858   -4.7913 C.3     1  UNL1        0.1895
     11 C          18.9964   71.1201   -3.6315 C.3     1  UNL1        0.1764
     12 C          17.6587   70.8069   -5.5363 C.3     1  UNL1        0.2383
     13 H          17.1509   70.7476   -1.8598 H       1  UNL1        0.2105
     14 H          16.6446   67.9755   -4.2689 H       1  UNL1        0.2106
     15 O          15.8747   70.1860   -7.6356 O.2     1  UNL1       -0.2464
     16 O          19.2327   70.3647  -10.7869 O.2     1  UNL1       -0.2670
     17 N          18.0394   70.6854   -6.9145 N.ar    1  UNL1       -0.2551
     18 N          17.5481   70.2749   -9.2034 N.ar    1  UNL1       -0.2743
     19 C          17.0663   70.3692   -7.8911 C.ar    1  UNL1        0.3323
     20 C          19.3651   70.8788   -7.2871 C.ar    1  UNL1        0.0869
     21 C          19.8087   70.7858   -8.5426 C.ar    1  UNL1        0.0795
     22 C          18.8568   70.4582   -9.6225 C.ar    1  UNL1        0.2626
     23 H          16.8663   70.0479   -9.9222 H       1  UNL1        0.1734
     24 O          22.8611   71.1720   -0.8271 O.3     1  UNL1       -0.2703
     25 P          22.6934   70.9851    0.7696 P.3     1  UNL1        0.2208
     26 O          24.0628   70.2409    1.2021 O.3     1  UNL1       -0.4371
     27 O          21.4405   70.2640    1.1771 O.2     1  UNL1       -0.5170
     28 O          22.8307   72.4757    1.3725 O.3     1  UNL1       -0.2858
     29 O          24.3805   73.8388    0.2151 O.3     1  UNL1       -0.3226
     30 O          23.4993   76.1595    3.5493 O.3     1  UNL1       -0.3794
     31 O          23.8628   73.2771    3.8046 O.3     1  UNL1       -0.3775
     32 O          24.8860   76.4930    1.1838 O.3     1  UNL1       -0.3792
     33 C          23.2865   75.2355    2.4858 C.3     1  UNL1        0.1718
     34 C          24.2080   74.0209    2.6408 C.3     1  UNL1        0.1968
     35 C          23.5665   75.9390    1.1550 C.3     1  UNL1        0.1723
     36 C          24.1106   73.1051    1.4143 C.3     1  UNL1        0.2706
     37 C          23.4824   74.9288    0.0128 C.3     1  UNL1        0.1830
     38 H          22.8986   76.9112    3.4094 H       1  UNL1        0.2105
     39 H          24.4649   72.5156    3.8553 H       1  UNL1        0.2106
     40 H          25.5275   75.7674    1.0990 H       1  UNL1        0.2106
     41 O          22.7808   75.9472   -1.9808 O.co2   1  UNL1       -0.5466
     42 O          25.0250   75.6732   -1.6890 O.co2   1  UNL1       -0.5466
     43 C          23.8759   75.5444   -1.2922 C.2     1  UNL1        0.0799
@<TRIPOS>UNITY_ATOM_ATTR
41 1
charge -1
@<TRIPOS>BOND
     1     1     4    1
     2     1    24    1
     3     1     2    1
     4     1     3    2
     5    25    28    1
     6    25    24    1
     7    25    26    1
     8    25    27    2
     9     6    11    1
    10     6    12    1
    11    29    36    1
    12    29    37    1
    13     7     9    1
    14     7    13    1
    15     8    10    1
    16     8    14    1
    17     4     5    1
    18    28    36    1
    19    30    33    1
    20    30    38    1
    21    31    34    1
    22    31    39    1
    23    32    35    1
    24    32    40    1
    25    41    43   ar
    26    15    19    2
    27    42    43   ar
    28    16    22    2
    29    17    12    1
    30    17    19   ar
    31    17    20   ar
    32    18    19   ar
    33    18    22   ar
    34    18    23    1
    35     9    10    1
    36     9    11    1
    37    10    12    1
    38    11     5    1
    39    33    34    1
    40    33    35    1
    41    34    36    1
    42    35    37    1
    43    37    43    1
    44    20    21   ar
    45    21    22   ar
@<TRIPOS>MOLECULE
UDP-glaA
 43 45 0 0 0
SMALL
GASTEIGER

@<TRIPOS>ATOM
      1 P          15.5388   71.0156   -2.0696 P.3     1  UNL1        0.2189
      2 O          16.7905   71.9392   -1.6252 O.3     1  UNL1       -0.4371
      3 O          14.5258   71.6989   -2.9409 O.2     1  UNL1       -0.5170
      4 O          14.9784   70.4208   -0.6739 O.3     1  UNL1       -0.3112
      5 C          14.3787   69.1365   -0.6770 C.3     1  UNL1        0.1811
      6 O          12.2453   68.1188   -0.2445 O.3     1  UNL1       -0.3308
      7 O          11.0752   70.8550   -0.6121 O.3     1  UNL1       -0.3794
      8 O          11.1399   70.5947    2.1015 O.3     1  UNL1       -0.3779
      9 C          12.3184   70.4762   -0.0216 C.3     1  UNL1        0.1713
     10 C          12.0868   69.8684    1.3456 C.3     1  UNL1        0.1895
     11 C          12.8703   69.2936   -0.8068 C.3     1  UNL1        0.1764
     12 C          11.6047   68.4716    0.9927 C.3     1  UNL1        0.2383
     13 H          11.2696   71.2019   -1.4995 H       1  UNL1        0.2105
     14 H          11.4719   71.5047    2.1899 H       1  UNL1        0.2106
     15 O          14.2516   67.8367    1.7452 O.2     1  UNL1       -0.2464
     16 O          12.8223   64.7342    4.8387 O.2     1  UNL1       -0.2670
     17 N          11.9532   67.5025    1.9921 N.ar    1  UNL1       -0.2551
     18 N          13.5381   66.2918    3.2848 N.ar    1  UNL1       -0.2743
     19 C          13.3130   67.2575    2.2949 C.ar    1  UNL1        0.3323
     20 C          10.9527   66.8060    2.6608 C.ar    1  UNL1        0.0869
     21 C          11.1835   65.8886    3.6026 C.ar    1  UNL1        0.0795
     22 C          12.5762   65.5729    3.9773 C.ar    1  UNL1        0.2626
     23 H          14.5083   66.0989    3.5184 H       1  UNL1        0.1734
     24 O          16.2563   69.7350   -2.7480 O.3     1  UNL1       -0.2703
     25 P          17.8169   69.3287   -2.8578 P.3     1  UNL1        0.2208
     26 O          17.7882   67.7147   -2.7557 O.3     1  UNL1       -0.4371
     27 O          18.7005   69.9983   -1.8446 O.2     1  UNL1       -0.5170
     28 O          18.2120   69.6339   -4.3923 O.3     1  UNL1       -0.2858
     29 O          19.1898   71.5975   -5.2798 O.3     1  UNL1       -0.3226
     30 O          16.9821   70.1883   -8.5077 O.3     1  UNL1       -0.3794
     31 O          15.8855   70.0906   -5.8070 O.3     1  UNL1       -0.3775
     32 O          18.8492   72.1764   -8.0704 O.3     1  UNL1       -0.3792
     33 C          17.7802   70.1414   -7.3282 C.3     1  UNL1        0.1718
     34 C          17.0533   70.8225   -6.1637 C.3     1  UNL1        0.1968
     35 C          19.1100   70.8494   -7.6016 C.3     1  UNL1        0.1723
     36 C          17.9705   70.9296   -4.9391 C.3     1  UNL1        0.2706
     37 C          19.9209   70.9348   -6.3103 C.3     1  UNL1        0.1830
     38 H          17.4813   69.7492   -9.2173 H       1  UNL1        0.2105
     39 H          15.4655   70.5529   -5.0622 H       1  UNL1        0.2106
     40 H          18.5522   72.7167   -7.3187 H       1  UNL1        0.2106
     41 O          21.6789   72.1199   -5.3061 O.co2   1  UNL1       -0.5466
     42 O          21.6741   72.0011   -7.5827 O.co2   1  UNL1       -0.5466
     43 C          21.1712   71.7331   -6.5011 C.2     1  UNL1        0.0799
@<TRIPOS>UNITY_ATOM_ATTR
41 1
charge -1
@<TRIPOS>BOND
     1     1     4    1
     2     1    24    1
     3     1     2    1
     4     1     3    2
     5    25    28    1
     6    25    24    1
     7    25    26    1
     8    25    27    2
     9     6    11    1
    10     6    12    1
    11    29    36    1
    12    29    37    1
    13     7     9    1
    14     7    13    1
    15     8    10    1
    16     8    14    1
    17     4     5    1
    18    28    36    1
    19    30    33    1
    20    30    38    1
    21    31    34    1
    22    31    39    1
    23    32    35    1
    24    32    40    1
    25    41    43   ar
    26    15    19    2
    27    42    43   ar
    28    16    22    2
    29    17    12    1
    30    17    19   ar
    31    17    20   ar
    32    18    19   ar
    33    18    22   ar
    34    18    23    1
    35     9    10    1
    36     9    11    1
    37    10    12    1
    38    11     5    1
    39    33    34    1
    40    33    35    1
    41    34    36    1
    42    35    37    1
    43    37    43    1
    44    20    21   ar
    45    21    22   ar
@<TRIPOS>MOLECULE
UDP-glaA
 43 45 0 0 0
SMALL
GASTEIGER

@<TRIPOS>ATOM
      1 P          20.8298   71.3409   -4.4200 P.3     1  UNL1        0.2189
      2 O          21.6437   71.7993   -5.7408 O.3     1  UNL1       -0.4371
      3 O          20.8954   69.8733   -4.1136 O.2     1  UNL1       -0.5170
      4 O          19.3472   71.9462   -4.6462 O.3     1  UNL1       -0.3112
      5 C          18.5999   72.3500   -3.5114 C.3     1  UNL1        0.1811
      6 O          16.7856   72.0662   -5.0612 O.3     1  UNL1       -0.3308
      7 O          15.5908   70.2082   -3.0335 O.3     1  UNL1       -0.3794
      8 O          16.6884   68.4887   -4.8430 O.3     1  UNL1       -0.3779
      9 C          16.9616   70.4091   -3.3773 C.3     1  UNL1        0.1713
     10 C          17.2660   69.7717   -4.7166 C.3     1  UNL1        0.1895
     11 C          17.1587   71.8894   -3.6768 C.3     1  UNL1        0.1764
     12 C          16.6719   70.7778   -5.6875 C.3     1  UNL1        0.2383
     13 H          15.4335   70.6659   -2.1901 H       1  UNL1        0.2105
     14 H          17.0378   67.9380   -4.1213 H       1  UNL1        0.2106
     15 O          15.7657   72.1486   -7.9843 O.2     1  UNL1       -0.2464
     16 O          19.4230   70.8116  -10.4491 O.2     1  UNL1       -0.2670
     17 N          17.3674   70.8053   -6.9424 N.ar    1  UNL1       -0.2551
     18 N          17.5873   71.4815   -9.2103 N.ar    1  UNL1       -0.2743
     19 C          16.8262   71.5229   -8.0346 C.ar    1  UNL1        0.3323
     20 C          18.5725   70.1259   -7.0820 C.ar    1  UNL1        0.0869
     21 C          19.2865   70.0964   -8.2095 C.ar    1  UNL1        0.0795
     22 C          18.7908   70.8195   -9.3973 C.ar    1  UNL1        0.2626
     23 H          17.2171   71.9900  -10.0088 H       1  UNL1        0.1734
     24 O          21.4405   72.2973   -3.2678 O.3     1  UNL1       -0.2703
     25 P          22.9492   72.4535   -2.7090 P.3     1  UNL1        0.2208
     26 O          23.3942   73.9132   -3.2450 O.3     1  UNL1       -0.4371
     27 O          23.8725   71.3383   -3.1085 O.2     1  UNL1       -0.5170
     28 O          22.7778   72.6384   -1.1151 O.3     1  UNL1       -0.2858
     29 O          23.6373   74.3093    0.3231 O.3     1  UNL1       -0.3226
     30 O          23.5802   70.9723    2.8011 O.3     1  UNL1       -0.3794
     31 O          24.4282   70.7385    0.0204 O.3     1  UNL1       -0.3775
     32 O          24.0387   73.6804    3.0947 O.3     1  UNL1       -0.3792
     33 C          23.1653   71.8609    1.7674 C.3     1  UNL1        0.1718
     34 C          24.2542   71.9797    0.6957 C.3     1  UNL1        0.1968
     35 C          22.8812   73.2351    2.3801 C.3     1  UNL1        0.1723
     36 C          23.8916   73.0610   -0.3297 C.3     1  UNL1        0.2706
     37 C          22.5728   74.2379    1.2704 C.3     1  UNL1        0.1830
     38 H          22.8633   70.9297    3.4567 H       1  UNL1        0.2105
     39 H          25.1181   70.8648   -0.6525 H       1  UNL1        0.2106
     40 H          24.7152   73.9490    2.4502 H       1  UNL1        0.2106
     41 O          23.6005   76.2804    1.7957 O.co2   1  UNL1       -0.5466
     42 O          21.3666   76.1042    2.2147 O.co2   1  UNL1       -0.5466
     43 C          22.4160   75.6230    1.8127 C.2     1  UNL1        0.0799
@<TRIPOS>UNITY_ATOM_ATTR
41 1
charge -1
@<TRIPOS>BOND
     1     1     4    1
     2     1    24    1
     3     1     2    1
     4     1     3    2
     5    25    28    1
     6    25    24    1
     7    25    26    1
     8    25    27    2
     9     6    11    1
    10     6    12    1
    11    29    36    1
    12    29    37    1
    13     7     9    1
    14     7    13    1
    15     8    10    1
    16     8    14    1
    17     4     5    1
    18    28    36    1
    19    30    33    1
    20    30    38    1
    21    31    34    1
    22    31    39    1
    23    32    35    1
    24    32    40    1
    25    41    43   ar
    26    15    19    2
    27    42    43   ar
    28    16    22    2
    29    17    12    1
    30    17    19   ar
    31    17    20   ar
    32    18    19   ar
    33    18    22   ar
    34    18    23    1
    35     9    10    1
    36     9    11    1
    37    10    12    1
    38    11     5    1
    39    33    34    1
    40    33    35    1
    41    34    36    1
    42    35    37    1
    43    37    43    1
    44    20    21   ar
    45    21    22   ar
@<TRIPOS>MOLECULE
UDP-glaA
 43 45 0 0 0
SMALL
GASTEIGER

@<TRIPOS>ATOM
      1 P          20.5887   72.7946   -3.0294 P.3     1  UNL1        0.2189
      2 O          20.9567   73.6047   -1.6782 O.3     1  UNL1       -0.4371
      3 O          20.1095   73.6471   -4.1678 O.2     1  UNL1       -0.5170
      4 O          19.5633   71.6482   -2.5295 O.3     1  UNL1       -0.3112
      5 C          19.0685   70.7206   -3.4803 C.3     1  UNL1        0.1811
      6 O          17.4075   71.5468   -5.0075 O.3     1  UNL1       -0.3308
      7 O          15.4064   70.0566   -3.3442 O.3     1  UNL1       -0.3794
      8 O          15.7604   68.3970   -5.4788 O.3     1  UNL1       -0.3779
      9 C          16.7474   69.6997   -3.6789 C.3     1  UNL1        0.1713
     10 C          16.8270   69.2524   -5.1233 C.3     1  UNL1        0.1895
     11 C          17.5828   70.9732   -3.6932 C.3     1  UNL1        0.1764
     12 C          16.7861   70.5767   -5.8667 C.3     1  UNL1        0.2383
     13 H          15.4116   70.3728   -2.4247 H       1  UNL1        0.2105
     14 H          15.7930   67.6266   -4.8859 H       1  UNL1        0.2106
     15 O          15.5643   70.6597   -8.4114 O.2     1  UNL1       -0.2464
     16 O          19.6255   70.3856  -10.5724 O.2     1  UNL1       -0.2670
     17 N          17.4999   70.5292   -7.1107 N.ar    1  UNL1       -0.2551
     18 N          17.5874   70.5226   -9.4858 N.ar    1  UNL1       -0.2743
     19 C          16.7914   70.5764   -8.3340 C.ar    1  UNL1        0.3323
     20 C          18.8873   70.4368   -7.1107 C.ar    1  UNL1        0.0869
     21 C          19.6320   70.3870   -8.2174 C.ar    1  UNL1        0.0795
     22 C          18.9697   70.4301   -9.5361 C.ar    1  UNL1        0.2626
     23 H          17.0994   70.5545  -10.3768 H       1  UNL1        0.1734
     24 O          21.9422   71.9636   -3.3336 O.3     1  UNL1       -0.2703
     25 P          23.3852   71.9841   -2.6057 P.3     1  UNL1        0.2208
     26 O          23.9981   73.4174   -3.0370 O.3     1  UNL1       -0.4371
     27 O          24.2602   70.8099   -2.9393 O.2     1  UNL1       -0.5170
     28 O          23.0487   72.1398   -1.0351 O.3     1  UNL1       -0.2858
     29 O          24.4107   71.1391    0.6211 O.3     1  UNL1       -0.3226
     30 O          20.8635   71.7912    2.6877 O.3     1  UNL1       -0.3794
     31 O          20.8189   70.8316   -0.0660 O.3     1  UNL1       -0.3775
     32 O          23.4291   70.9814    3.3137 O.3     1  UNL1       -0.3792
     33 C          21.9108   72.0223    1.7496 C.3     1  UNL1        0.1718
     34 C          21.9901   70.8700    0.7426 C.3     1  UNL1        0.1968
     35 C          23.2354   72.1481    2.5073 C.3     1  UNL1        0.1723
     36 C          23.2186   71.0234   -0.1628 C.3     1  UNL1        0.2706
     37 C          24.3882   72.2538    1.5113 C.3     1  UNL1        0.1830
     38 H          20.8518   72.5422    3.3053 H       1  UNL1        0.2105
     39 H          20.9187   70.0947   -0.6921 H       1  UNL1        0.2106
     40 H          23.6676   70.2399    2.7319 H       1  UNL1        0.2106
     41 O          26.2629   71.0103    2.1768 O.co2   1  UNL1       -0.5466
     42 O          26.2364   73.2227    2.7259 O.co2   1  UNL1       -0.5466
     43 C          25.7131   72.2483    2.2052 C.2     1  UNL1        0.0799
@<TRIPOS>UNITY_ATOM_ATTR
41 1
charge -1
@<TRIPOS>BOND
     1     1     4    1
     2     1    24    1
     3     1     2    1
     4     1     3    2
     5    25    28    1
     6    25    24    1
     7    25    26    1
     8    25    27    2
     9     6    11    1
    10     6    12    1
    11    29    36    1
    12    29    37    1
    13     7     9    1
    14     7    13    1
    15     8    10    1
    16     8    14    1
    17     4     5    1
    18    28    36    1
    19    30    33    1
    20    30    38    1
    21    31    34    1
    22    31    39    1
    23    32    35    1
    24    32    40    1
    25    41    43   ar
    26    15    19    2
    27    42    43   ar
    28    16    22    2
    29    17    12    1
    30    17    19   ar
    31    17    20   ar
    32    18    19   ar
    33    18    22   ar
    34    18    23    1
    35     9    10    1
    36     9    11    1
    37    10    12    1
    38    11     5    1
    39    33    34    1
    40    33    35    1
    41    34    36    1
    42    35    37    1
    43    37    43    1
    44    20    21   ar
    45    21    22   ar
@<TRIPOS>MOLECULE
UDP-glaA
 43 45 0 0 0
SMALL
GASTEIGER

@<TRIPOS>ATOM
      1 P          15.4041   71.0979   -1.9017 P.3     1  UNL1        0.2189
      2 O          16.5525   72.0865   -1.3350 O.3     1  UNL1       -0.4371
      3 O          14.4409   71.7317   -2.8623 O.2     1  UNL1       -0.5170
      4 O          14.7488   70.4574   -0.5691 O.3     1  UNL1       -0.3112
      5 C          14.2180   69.1449   -0.6389 C.3     1  UNL1        0.1811
      6 O          12.1434   68.0318   -0.1581 O.3     1  UNL1       -0.3308
      7 O          10.8372   70.7039   -0.5387 O.3     1  UNL1       -0.3794
      8 O          10.9586   70.4818    2.1764 O.3     1  UNL1       -0.3779
      9 C          12.1067   70.3927    0.0352 C.3     1  UNL1        0.1713
     10 C          11.9269   69.7920    1.4134 C.3     1  UNL1        0.1895
     11 C          12.7019   69.2279   -0.7450 C.3     1  UNL1        0.1764
     12 C          11.5069   68.3693    1.0854 C.3     1  UNL1        0.2383
     13 H          11.0002   71.0483   -1.4333 H       1  UNL1        0.2105
     14 H          11.2479   71.4077    2.2482 H       1  UNL1        0.2106
     15 O          14.1868   67.9370    1.8642 O.2     1  UNL1       -0.2464
     16 O          12.9659   64.7408    4.9516 O.2     1  UNL1       -0.2670
     17 N          11.9179   67.4309    2.0904 N.ar    1  UNL1       -0.2551
     18 N          13.5771   66.3453    3.4007 N.ar    1  UNL1       -0.2743
     19 C          13.2893   67.2896    2.4064 C.ar    1  UNL1        0.3323
     20 C          10.9663   66.6621    2.7514 C.ar    1  UNL1        0.0869
     21 C          11.2567   65.7663    3.6974 C.ar    1  UNL1        0.0795
     22 C          12.6656   65.5571    4.0859 C.ar    1  UNL1        0.2626
     23 H          14.5568   66.2264    3.6439 H       1  UNL1        0.1734
     24 O          16.2556   69.8675   -2.5151 O.3     1  UNL1       -0.2703
     25 P          17.8249   69.7427   -2.8814 P.3     1  UNL1        0.2208
     26 O          17.9385   68.2645   -3.5282 O.3     1  UNL1       -0.4371
     27 O          18.7491   69.9850   -1.7226 O.2     1  UNL1       -0.5170
     28 O          18.0361   70.7497   -4.1245 O.3     1  UNL1       -0.2858
     29 O          18.2817   70.0751   -6.3793 O.3     1  UNL1       -0.3226
     30 O          20.1847   73.7707   -6.3636 O.3     1  UNL1       -0.3794
     31 O          20.5406   71.9115   -4.1449 O.3     1  UNL1       -0.3775
     32 O          19.4070   71.9238   -8.2647 O.3     1  UNL1       -0.3792
     33 C          19.2364   72.7685   -6.0081 C.3     1  UNL1        0.1718
     34 C          19.9442   71.5587   -5.3886 C.3     1  UNL1        0.1968
     35 C          18.4723   72.3416   -7.2644 C.3     1  UNL1        0.1723
     36 C          18.9554   70.4085   -5.1611 C.3     1  UNL1        0.2706
     37 C          17.5517   71.1694   -6.9318 C.3     1  UNL1        0.1830
     38 H          19.6936   74.5143   -6.7529 H       1  UNL1        0.2105
     39 H          20.9669   71.1145   -3.7874 H       1  UNL1        0.2106
     40 H          19.7621   71.0547   -8.0119 H       1  UNL1        0.2106
     41 O          17.7469   69.8960   -8.8924 O.co2   1  UNL1       -0.5466
     42 O          15.7132   70.8309   -8.4599 O.co2   1  UNL1       -0.5466
     43 C          16.8814   70.6351   -8.1574 C.2     1  UNL1        0.0799
@<TRIPOS>UNITY_ATOM_ATTR
41 1
charge -1
@<TRIPOS>BOND
     1     1     4    1
     2     1    24    1
     3     1     2    1
     4     1     3    2
     5    25    28    1
     6    25    24    1
     7    25    26    1
     8    25    27    2
     9     6    11    1
    10     6    12    1
    11    29    36    1
    12    29    37    1
    13     7     9    1
    14     7    13    1
    15     8    10    1
    16     8    14    1
    17     4     5    1
    18    28    36    1
    19    30    33    1
    20    30    38    1
    21    31    34    1
    22    31    39    1
    23    32    35    1
    24    32    40    1
    25    41    43   ar
    26    15    19    2
    27    42    43   ar
    28    16    22    2
    29    17    12    1
    30    17    19   ar
    31    17    20   ar
    32    18    19   ar
    33    18    22   ar
    34    18    23    1
    35     9    10    1
    36     9    11    1
    37    10    12    1
    38    11     5    1
    39    33    34    1
    40    33    35    1
    41    34    36    1
    42    35    37    1
    43    37    43    1
    44    20    21   ar
    45    21    22   ar
@<TRIPOS>MOLECULE
UDP-glaA
 43 45 0 0 0
SMALL
GASTEIGER

@<TRIPOS>ATOM
      1 P          21.9179   72.4415   -5.7398 P.3     1  UNL1        0.2189
      2 O          21.2680   73.8652   -5.3300 O.3     1  UNL1       -0.4371
      3 O          23.1215   72.5284   -6.6319 O.2     1  UNL1       -0.5170
      4 O          20.6689   71.5969   -6.3249 O.3     1  UNL1       -0.3112
      5 C          20.1305   71.9673   -7.5828 C.3     1  UNL1        0.1811
      6 O          18.9094   69.9414   -7.1601 O.3     1  UNL1       -0.3308
      7 O          18.1231   70.0328  -10.0523 O.3     1  UNL1       -0.3794
      8 O          15.8991   70.9926   -8.7999 O.3     1  UNL1       -0.3779
      9 C          18.3048   71.1082   -9.1313 C.3     1  UNL1        0.1713
     10 C          17.1456   71.1685   -8.1590 C.3     1  UNL1        0.1895
     11 C          19.4695   70.7517   -8.2169 C.3     1  UNL1        0.1764
     12 C          17.4760   70.0349   -7.2031 C.3     1  UNL1        0.2383
     13 H          18.9062   70.0091  -10.6283 H       1  UNL1        0.2105
     14 H          15.8129   71.6926   -9.4697 H       1  UNL1        0.2106
     15 O          16.3120   68.0620   -5.5515 O.2     1  UNL1       -0.2464
     16 O          15.6195   71.0726   -2.1317 O.2     1  UNL1       -0.2670
     17 N          16.9836   70.2752   -5.8768 N.ar    1  UNL1       -0.2551
     18 N          15.9675   69.5626   -3.8498 N.ar    1  UNL1       -0.2743
     19 C          16.4161   69.2157   -5.1310 C.ar    1  UNL1        0.3323
     20 C          17.0653   71.5500   -5.3274 C.ar    1  UNL1        0.0869
     21 C          16.6334   71.8646   -4.1042 C.ar    1  UNL1        0.0795
     22 C          16.0269   70.8159   -3.2604 C.ar    1  UNL1        0.2626
     23 H          15.5552   68.8167   -3.2958 H       1  UNL1        0.1734
     24 O          22.1902   71.7417   -4.3076 O.3     1  UNL1       -0.2703
     25 P          23.4294   71.8790   -3.2790 P.3     1  UNL1        0.2208
     26 O          24.1924   73.2095   -3.7927 O.3     1  UNL1       -0.4371
     27 O          24.2999   70.6578   -3.1968 O.2     1  UNL1       -0.5170
     28 O          22.7530   72.3109   -1.8790 O.3     1  UNL1       -0.2858
     29 O          23.2155   70.9022   -0.0348 O.3     1  UNL1       -0.3226
     30 O          20.1414   73.2823    1.4365 O.3     1  UNL1       -0.3794
     31 O          20.0542   72.2724   -1.2982 O.3     1  UNL1       -0.3775
     32 O          21.8911   71.4065    2.4612 O.3     1  UNL1       -0.3792
     33 C          21.2985   72.9303    0.6831 C.3     1  UNL1        0.1718
     34 C          20.9693   71.8107   -0.3102 C.3     1  UNL1        0.1968
     35 C          22.3957   72.4699    1.6467 C.3     1  UNL1        0.1723
     36 C          22.2419   71.3074   -1.0027 C.3     1  UNL1        0.2706
     37 C          23.5934   71.9542    0.8519 C.3     1  UNL1        0.1830
     38 H          20.3964   73.9905    2.0520 H       1  UNL1        0.2105
     39 H          19.8837   71.5347   -1.9077 H       1  UNL1        0.2106
     40 H          21.8322   70.6025    1.9179 H       1  UNL1        0.2106
     41 O          24.5492   70.0221    1.7778 O.co2   1  UNL1       -0.5466
     42 O          25.4639   72.0224    2.3771 O.co2   1  UNL1       -0.5466
     43 C          24.6380   71.3738    1.7513 C.2     1  UNL1        0.0799
@<TRIPOS>UNITY_ATOM_ATTR
41 1
charge -1
@<TRIPOS>BOND
     1     1     4    1
     2     1    24    1
     3     1     2    1
     4     1     3    2
     5    25    28    1
     6    25    24    1
     7    25    26    1
     8    25    27    2
     9     6    11    1
    10     6    12    1
    11    29    36    1
    12    29    37    1
    13     7     9    1
    14     7    13    1
    15     8    10    1
    16     8    14    1
    17     4     5    1
    18    28    36    1
    19    30    33    1
    20    30    38    1
    21    31    34    1
    22    31    39    1
    23    32    35    1
    24    32    40    1
    25    41    43   ar
    26    15    19    2
    27    42    43   ar
    28    16    22    2
    29    17    12    1
    30    17    19   ar
    31    17    20   ar
    32    18    19   ar
    33    18    22   ar
    34    18    23    1
    35     9    10    1
    36     9    11    1
    37    10    12    1
    38    11     5    1
    39    33    34    1
    40    33    35    1
    41    34    36    1
    42    35    37    1
    43    37    43    1
    44    20    21   ar
    45    21    22   ar
@<TRIPOS>MOLECULE
UDP-glaA
 43 45 0 0 0
SMALL
GASTEIGER

@<TRIPOS>ATOM
      1 P          22.2741   73.5769   -4.8327 P.3     1  UNL1        0.2189
      2 O          22.1467   75.0075   -5.5774 O.3     1  UNL1       -0.4371
      3 O          23.3421   72.6734   -5.3762 O.2     1  UNL1       -0.5170
      4 O          20.7693   72.9853   -4.8651 O.3     1  UNL1       -0.3112
      5 C          19.6884   73.8697   -4.6233 C.3     1  UNL1        0.1811
      6 O          17.7276   72.6608   -5.3076 O.3     1  UNL1       -0.3308
      7 O          17.7805   71.4044   -2.5855 O.3     1  UNL1       -0.3794
      8 O          18.8653   69.4601   -4.1599 O.3     1  UNL1       -0.3779
      9 C          18.8698   71.7788   -3.4287 C.3     1  UNL1        0.1713
     10 C          19.0038   70.8023   -4.5782 C.3     1  UNL1        0.1895
     11 C          18.4867   73.0660   -4.1471 C.3     1  UNL1        0.1764
     12 C          17.8813   71.2451   -5.5011 C.3     1  UNL1        0.2383
     13 H          17.7090   72.0782   -1.8881 H       1  UNL1        0.2105
     14 H          19.5515   69.2894   -3.4920 H       1  UNL1        0.2106
     15 O          15.9434   70.6076   -7.4540 O.2     1  UNL1       -0.2464
     16 O          19.1260   70.2907  -10.7720 O.2     1  UNL1       -0.2670
     17 N          18.1753   70.9917   -6.8827 N.ar    1  UNL1       -0.2551
     18 N          17.5296   70.4497   -9.1049 N.ar    1  UNL1       -0.2743
     19 C          17.1292   70.6790   -7.7819 C.ar    1  UNL1        0.3323
     20 C          19.4889   71.0541   -7.3345 C.ar    1  UNL1        0.0869
     21 C          19.8544   70.8333   -8.5992 C.ar    1  UNL1        0.0795
     22 C          18.8229   70.4998   -9.6014 C.ar    1  UNL1        0.2626
     23 H          16.7942   70.2225   -9.7688 H       1  UNL1        0.1734
     24 O          22.4679   73.9917   -3.2817 O.3     1  UNL1       -0.2703
     25 P          22.5743   73.0859   -1.9473 P.3     1  UNL1        0.2208
     26 O          23.9020   73.6535   -1.2185 O.3     1  UNL1       -0.4371
     27 O          22.5939   71.6067   -2.2069 O.2     1  UNL1       -0.5170
     28 O          21.3534   73.5833   -1.0169 O.3     1  UNL1       -0.2858
     29 O          21.4184   71.8185    0.5581 O.3     1  UNL1       -0.3226
     30 O          19.1314   74.6694    2.5384 O.3     1  UNL1       -0.3794
     31 O          18.7526   74.1856   -0.3126 O.3     1  UNL1       -0.3775
     32 O          20.2995   72.2464    3.1665 O.3     1  UNL1       -0.3792
     33 C          20.1416   74.1448    1.6813 C.3     1  UNL1        0.1718
     34 C          19.5098   73.3363    0.5431 C.3     1  UNL1        0.1968
     35 C          21.0740   73.2513    2.5038 C.3     1  UNL1        0.1723
     36 C          20.5895   72.6269   -0.2836 C.3     1  UNL1        0.2706
     37 C          22.0777   72.5672    1.5782 C.3     1  UNL1        0.1830
     38 H          19.5759   75.1702    3.2435 H       1  UNL1        0.2105
     39 H          18.3811   73.6328   -1.0206 H       1  UNL1        0.2106
     40 H          20.0173   71.5895    2.5077 H       1  UNL1        0.2106
     41 O          23.3837   70.6205    1.4868 O.co2   1  UNL1       -0.5466
     42 O          23.1789   71.6389    3.5160 O.co2   1  UNL1       -0.5466
     43 C          22.9260   71.5847    2.3212 C.2     1  UNL1        0.0799
@<TRIPOS>UNITY_ATOM_ATTR
41 1
charge -1
@<TRIPOS>BOND
     1     1     4    1
     2     1    24    1
     3     1     2    1
     4     1     3    2
     5    25    28    1
     6    25    24    1
     7    25    26    1
     8    25    27    2
     9     6    11    1
    10     6    12    1
    11    29    36    1
    12    29    37    1
    13     7     9    1
    14     7    13    1
    15     8    10    1
    16     8    14    1
    17     4     5    1
    18    28    36    1
    19    30    33    1
    20    30    38    1
    21    31    34    1
    22    31    39    1
    23    32    35    1
    24    32    40    1
    25    41    43   ar
    26    15    19    2
    27    42    43   ar
    28    16    22    2
    29    17    12    1
    30    17    19   ar
    31    17    20   ar
    32    18    19   ar
    33    18    22   ar
    34    18    23    1
    35     9    10    1
    36     9    11    1
    37    10    12    1
    38    11     5    1
    39    33    34    1
    40    33    35    1
    41    34    36    1
    42    35    37    1
    43    37    43    1
    44    20    21   ar
    45    21    22   ar
@<TRIPOS>MOLECULE
UDP-glaA
 43 45 0 0 0
SMALL
GASTEIGER

@<TRIPOS>ATOM
      1 P          23.6249   72.3973   -3.3582 P.3     1  UNL1        0.2189
      2 O          24.1323   70.8890   -3.0664 O.3     1  UNL1       -0.4371
      3 O          24.7096   73.3731   -3.7096 O.2     1  UNL1       -0.5170
      4 O          22.7394   72.7691   -2.0570 O.3     1  UNL1       -0.3112
      5 C          23.3926   72.8883   -0.8046 C.3     1  UNL1        0.1811
      6 O          24.5071   71.3536    0.6708 O.3     1  UNL1       -0.3308
      7 O          21.7932   70.2027    1.2202 O.3     1  UNL1       -0.3794
      8 O          22.2279   71.7729    3.4068 O.3     1  UNL1       -0.3779
      9 C          22.1681   71.5600    0.9857 C.3     1  UNL1        0.1713
     10 C          22.8714   72.1279    2.2004 C.3     1  UNL1        0.1895
     11 C          23.2778   71.5672   -0.0575 C.3     1  UNL1        0.1764
     12 C          24.2574   71.5185    2.0764 C.3     1  UNL1        0.2383
     13 H          21.3828   69.8702    0.4038 H       1  UNL1        0.2105
     14 H          21.3151   72.1056    3.3606 H       1  UNL1        0.2106
     15 O          26.9484   70.7388    2.4319 O.2     1  UNL1       -0.2464
     16 O          28.0841   74.8233    4.2391 O.2     1  UNL1       -0.2670
     17 N          25.2775   72.3580    2.6368 N.ar    1  UNL1       -0.2551
     18 N          27.5120   72.7731    3.3321 N.ar    1  UNL1       -0.2743
     19 C          26.5982   71.8701    2.7728 C.ar    1  UNL1        0.3323
     20 C          24.9651   73.6499    3.0452 C.ar    1  UNL1        0.0869
     21 C          25.8478   74.4988    3.5762 C.ar    1  UNL1        0.0795
     22 C          27.2484   74.0671    3.7535 C.ar    1  UNL1        0.2626
     23 H          28.4675   72.4436    3.4399 H       1  UNL1        0.1734
     24 O          22.5086   72.1877   -4.5093 O.3     1  UNL1       -0.2703
     25 P          22.0783   73.1269   -5.7525 P.3     1  UNL1        0.2208
     26 O          23.1396   72.7259   -6.9052 O.3     1  UNL1       -0.4371
     27 O          22.0367   74.5934   -5.4310 O.2     1  UNL1       -0.5170
     28 O          20.6738   72.5155   -6.2599 O.3     1  UNL1       -0.2858
     29 O          19.6946   70.4036   -5.8350 O.3     1  UNL1       -0.3226
     30 O          18.3298   71.2405   -9.6711 O.3     1  UNL1       -0.3794
     31 O          21.0776   71.8533   -8.9096 O.3     1  UNL1       -0.3775
     32 O          17.8343   69.3298   -7.7389 O.3     1  UNL1       -0.3792
     33 C          18.7457   71.4870   -8.3308 C.3     1  UNL1        0.1718
     34 C          20.1997   71.0454   -8.1327 C.3     1  UNL1        0.1968
     35 C          17.8292   70.7149   -7.3779 C.3     1  UNL1        0.1723
     36 C          20.6017   71.1465   -6.6560 C.3     1  UNL1        0.2706
     37 C          18.3446   70.8516   -5.9468 C.3     1  UNL1        0.1830
     38 H          17.4055   71.5322   -9.7498 H       1  UNL1        0.2105
     39 H          21.9841   71.5436   -8.7448 H       1  UNL1        0.2106
     40 H          18.6830   68.9424   -7.4653 H       1  UNL1        0.2106
     41 O          16.3345   69.7225   -5.5127 O.co2   1  UNL1       -0.5466
     42 O          17.9501   69.6206   -3.9075 O.co2   1  UNL1       -0.5466
     43 C          17.5549   70.0073   -4.9978 C.2     1  UNL1        0.0799
@<TRIPOS>UNITY_ATOM_ATTR
41 1
charge -1
@<TRIPOS>BOND
     1     1     4    1
     2     1    24    1
     3     1     2    1
     4     1     3    2
     5    25    28    1
     6    25    24    1
     7    25    26    1
     8    25    27    2
     9     6    11    1
    10     6    12    1
    11    29    36    1
    12    29    37    1
    13     7     9    1
    14     7    13    1
    15     8    10    1
    16     8    14    1
    17     4     5    1
    18    28    36    1
    19    30    33    1
    20    30    38    1
    21    31    34    1
    22    31    39    1
    23    32    35    1
    24    32    40    1
    25    41    43   ar
    26    15    19    2
    27    42    43   ar
    28    16    22    2
    29    17    12    1
    30    17    19   ar
    31    17    20   ar
    32    18    19   ar
    33    18    22   ar
    34    18    23    1
    35     9    10    1
    36     9    11    1
    37    10    12    1
    38    11     5    1
    39    33    34    1
    40    33    35    1
    41    34    36    1
    42    35    37    1
    43    37    43    1
    44    20    21   ar
    45    21    22   ar
@<TRIPOS>MOLECULE
UDP-glaA
 43 45 0 0 0
SMALL
GASTEIGER

@<TRIPOS>ATOM
      1 P          22.9563   71.7902   -2.4819 P.3     1  UNL1        0.2189
      2 O          23.2568   73.3561   -2.7556 O.3     1  UNL1       -0.4371
      3 O          24.1672   70.9037   -2.4826 O.2     1  UNL1       -0.5170
      4 O          21.8123   71.4182   -3.5629 O.3     1  UNL1       -0.3112
      5 C          21.0021   72.4610   -4.0779 C.3     1  UNL1        0.1811
      6 O          18.6651   72.3912   -4.6328 O.3     1  UNL1       -0.3308
      7 O          18.2585   71.1102   -1.9523 O.3     1  UNL1       -0.3794
      8 O          18.1688   68.9787   -3.6507 O.3     1  UNL1       -0.3779
      9 C          19.3415   70.9602   -2.8701 C.3     1  UNL1        0.1713
     10 C          18.9174   70.1088   -4.0482 C.3     1  UNL1        0.1895
     11 C          19.5912   72.3114   -3.5269 C.3     1  UNL1        0.1764
     12 C          18.1001   71.0912   -4.8697 C.3     1  UNL1        0.2383
     13 H          18.5639   71.6932   -1.2365 H       1  UNL1        0.2105
     14 H          18.7230   68.4596   -3.0428 H       1  UNL1        0.2106
     15 O          20.4466   70.3640   -6.2628 O.2     1  UNL1       -0.2464
     16 O          18.1861   70.0289  -10.2648 O.2     1  UNL1       -0.2670
     17 N          18.1535   70.8078   -6.2755 N.ar    1  UNL1       -0.2551
     18 N          19.3195   70.1981   -8.2548 N.ar    1  UNL1       -0.2743
     19 C          19.3827   70.4524   -6.8784 C.ar    1  UNL1        0.3323
     20 C          16.9961   70.8834   -7.0423 C.ar    1  UNL1        0.0869
     21 C          16.9521   70.6375   -8.3535 C.ar    1  UNL1        0.0795
     22 C          18.1926   70.2608   -9.0598 C.ar    1  UNL1        0.2626
     23 H          20.1915   69.9414   -8.7096 H       1  UNL1        0.1734
     24 O          22.1414   71.8163   -1.0853 O.3     1  UNL1       -0.2703
     25 P          22.5709   71.3504    0.4017 P.3     1  UNL1        0.2208
     26 O          24.1745   71.1731    0.2863 O.3     1  UNL1       -0.4371
     27 O          21.8467   70.1322    0.8988 O.2     1  UNL1       -0.5170
     28 O          22.3701   72.6648    1.3160 O.3     1  UNL1       -0.2858
     29 O          23.4195   74.6086    2.1644 O.3     1  UNL1       -0.3226
     30 O          22.4656   72.5446    5.6442 O.3     1  UNL1       -0.3794
     31 O          23.4925   71.1240    3.3132 O.3     1  UNL1       -0.3775
     32 O          23.4365   75.0492    5.0006 O.3     1  UNL1       -0.3792
     33 C          22.3335   73.0156    4.3059 C.3     1  UNL1        0.1718
     34 C          23.5148   72.5406    3.4531 C.3     1  UNL1        0.1968
     35 C          22.2809   74.5457    4.3223 C.3     1  UNL1        0.1723
     36 C          23.4721   73.1819    2.0605 C.3     1  UNL1        0.2706
     37 C          22.2827   75.0747    2.8897 C.3     1  UNL1        0.1830
     38 H          21.6995   72.8703    6.1467 H       1  UNL1        0.2105
     39 H          24.2508   70.8719    2.7599 H       1  UNL1        0.2106
     40 H          24.2081   74.9395    4.4194 H       1  UNL1        0.2106
     41 O          23.6492   76.9755    2.7374 O.co2   1  UNL1       -0.5466
     42 O          21.4042   77.3234    2.9269 O.co2   1  UNL1       -0.5466
     43 C          22.3628   76.5678    2.8578 C.2     1  UNL1        0.0799
@<TRIPOS>UNITY_ATOM_ATTR
41 1
charge -1
@<TRIPOS>BOND
     1     1     4    1
     2     1    24    1
     3     1     2    1
     4     1     3    2
     5    25    28    1
     6    25    24    1
     7    25    26    1
     8    25    27    2
     9     6    11    1
    10     6    12    1
    11    29    36    1
    12    29    37    1
    13     7     9    1
    14     7    13    1
    15     8    10    1
    16     8    14    1
    17     4     5    1
    18    28    36    1
    19    30    33    1
    20    30    38    1
    21    31    34    1
    22    31    39    1
    23    32    35    1
    24    32    40    1
    25    41    43   ar
    26    15    19    2
    27    42    43   ar
    28    16    22    2
    29    17    12    1
    30    17    19   ar
    31    17    20   ar
    32    18    19   ar
    33    18    22   ar
    34    18    23    1
    35     9    10    1
    36     9    11    1
    37    10    12    1
    38    11     5    1
    39    33    34    1
    40    33    35    1
    41    34    36    1
    42    35    37    1
    43    37    43    1
    44    20    21   ar
    45    21    22   ar
@<TRIPOS>MOLECULE
UDP-glaA
 43 45 0 0 0
SMALL
GASTEIGER

@<TRIPOS>ATOM
      1 P          22.7369   73.6981   -5.8329 P.3     1  UNL1        0.2189
      2 O          23.1697   72.1709   -5.5201 O.3     1  UNL1       -0.4371
      3 O          22.9632   74.1429   -7.2482 O.2     1  UNL1       -0.5170
      4 O          23.4977   74.5596   -4.6951 O.3     1  UNL1       -0.3112
      5 C          23.4376   74.1105   -3.3520 C.3     1  UNL1        0.1811
      6 O          21.8346   72.7828   -2.1512 O.3     1  UNL1       -0.3308
      7 O          20.0919   75.2229   -2.1522 O.3     1  UNL1       -0.3794
      8 O          21.1460   75.2450    0.3626 O.3     1  UNL1       -0.3779
      9 C          21.5116   75.1270   -2.0381 C.3     1  UNL1        0.1713
     10 C          21.8951   74.6249   -0.6621 C.3     1  UNL1        0.1895
     11 C          21.9790   73.9880   -2.9346 C.3     1  UNL1        0.1764
     12 C          21.6076   73.1376   -0.7772 C.3     1  UNL1        0.2383
     13 H          19.8929   75.5098   -3.0598 H       1  UNL1        0.2105
     14 H          21.3005   76.2033    0.2991 H       1  UNL1        0.2106
     15 O          20.9459   70.5823    0.2267 O.2     1  UNL1       -0.2464
     16 O          24.9815   70.1970    2.4185 O.2     1  UNL1       -0.2670
     17 N          22.4665   72.3470    0.0575 N.ar    1  UNL1       -0.2551
     18 N          22.9557   70.3923    1.3179 N.ar    1  UNL1       -0.2743
     19 C          22.0389   71.0766    0.5091 C.ar    1  UNL1        0.3323
     20 C          23.7180   72.8321    0.4208 C.ar    1  UNL1        0.0869
     21 C          24.5809   72.1673    1.1923 C.ar    1  UNL1        0.0795
     22 C          24.2111   70.8337    1.7064 C.ar    1  UNL1        0.2626
     23 H          22.6693   69.4771    1.6546 H       1  UNL1        0.1734
     24 O          21.1938   73.7432   -5.3514 O.3     1  UNL1       -0.2703
     25 P          19.8929   74.4278   -6.0234 P.3     1  UNL1        0.2208
     26 O          20.5266   75.5624   -6.9864 O.3     1  UNL1       -0.4371
     27 O          18.8885   74.9450   -5.0338 O.2     1  UNL1       -0.5170
     28 O          19.3180   73.3089   -7.0340 O.3     1  UNL1       -0.2858
     29 O          18.4379   71.6409   -5.6048 O.3     1  UNL1       -0.3226
     30 O          17.3261   70.2460   -9.3594 O.3     1  UNL1       -0.3794
     31 O          19.9648   71.4131   -8.9341 O.3     1  UNL1       -0.3775
     32 O          16.7986   69.5725   -6.7330 O.3     1  UNL1       -0.3792
     33 C          17.6215   71.1866   -8.3307 C.3     1  UNL1        0.1718
     34 C          19.0797   71.0464   -7.8810 C.3     1  UNL1        0.1968
     35 C          16.6822   70.9376   -7.1474 C.3     1  UNL1        0.1723
     36 C          19.3594   71.9323   -6.6607 C.3     1  UNL1        0.2706
     37 C          17.0761   71.8407   -5.9806 C.3     1  UNL1        0.1830
     38 H          16.3948   70.3689   -9.6107 H       1  UNL1        0.2105
     39 H          20.8729   71.3178   -8.6008 H       1  UNL1        0.2106
     40 H          17.6454   69.4619   -6.2683 H       1  UNL1        0.2106
     41 O          16.7235   70.4202   -4.1471 O.co2   1  UNL1       -0.5466
     42 O          15.3261   72.2090   -4.3584 O.co2   1  UNL1       -0.5466
     43 C          16.2677   71.5400   -4.7587 C.2     1  UNL1        0.0799
@<TRIPOS>UNITY_ATOM_ATTR
41 1
charge -1
@<TRIPOS>BOND
     1     1     4    1
     2     1    24    1
     3     1     2    1
     4     1     3    2
     5    25    28    1
     6    25    24    1
     7    25    26    1
     8    25    27    2
     9     6    11    1
    10     6    12    1
    11    29    36    1
    12    29    37    1
    13     7     9    1
    14     7    13    1
    15     8    10    1
    16     8    14    1
    17     4     5    1
    18    28    36    1
    19    30    33    1
    20    30    38    1
    21    31    34    1
    22    31    39    1
    23    32    35    1
    24    32    40    1
    25    41    43   ar
    26    15    19    2
    27    42    43   ar
    28    16    22    2
    29    17    12    1
    30    17    19   ar
    31    17    20   ar
    32    18    19   ar
    33    18    22   ar
    34    18    23    1
    35     9    10    1
    36     9    11    1
    37    10    12    1
    38    11     5    1
    39    33    34    1
    40    33    35    1
    41    34    36    1
    42    35    37    1
    43    37    43    1
    44    20    21   ar
    45    21    22   ar
@<TRIPOS>MOLECULE
UDP-glaA
 43 45 0 0 0
SMALL
GASTEIGER

@<TRIPOS>ATOM
      1 P          20.1333   71.9100   -2.3392 P.3     1  UNL1        0.2189
      2 O          19.7301   70.5425   -1.5746 O.3     1  UNL1       -0.4371
      3 O          20.9303   71.7208   -3.5967 O.2     1  UNL1       -0.5170
      4 O          20.8351   72.8065   -1.1905 O.3     1  UNL1       -0.3112
      5 C          20.1376   73.9350   -0.6914 C.3     1  UNL1        0.1811
      6 O          20.2724   72.4399    1.1849 O.3     1  UNL1       -0.3308
      7 O          18.8345   74.5620    2.7406 O.3     1  UNL1       -0.3794
      8 O          21.4250   74.9042    3.5205 O.3     1  UNL1       -0.3779
      9 C          19.8133   74.7037    1.7113 C.3     1  UNL1        0.1713
     10 C          21.1875   74.3532    2.2416 C.3     1  UNL1        0.1895
     11 C          19.5778   73.6037    0.6846 C.3     1  UNL1        0.1764
     12 C          21.1413   72.8347    2.2593 C.3     1  UNL1        0.2383
     13 H          17.9679   74.7584    2.3455 H       1  UNL1        0.2105
     14 H          21.3295   75.8693    3.4457 H       1  UNL1        0.2106
     15 O          21.5699   70.2848    1.1236 O.2     1  UNL1       -0.2464
     16 O          26.1442   70.6711    1.5298 O.2     1  UNL1       -0.2670
     17 N          22.4335   72.2445    2.0560 N.ar    1  UNL1       -0.2551
     18 N          23.8474   70.4787    1.3271 N.ar    1  UNL1       -0.2743
     19 C          22.5395   70.9577    1.4784 C.ar    1  UNL1        0.3323
     20 C          23.5791   72.9393    2.4277 C.ar    1  UNL1        0.0869
     21 C          24.8192   72.4691    2.2765 C.ar    1  UNL1        0.0795
     22 C          25.0173   71.1324    1.6819 C.ar    1  UNL1        0.2626
     23 H          23.9478   69.5552    0.9145 H       1  UNL1        0.1734
     24 O          18.7066   72.6417   -2.5498 O.3     1  UNL1       -0.2703
     25 P          18.0616   73.3531   -3.8500 P.3     1  UNL1        0.2208
     26 O          19.2347   74.3489   -4.3484 O.3     1  UNL1       -0.4371
     27 O          16.7440   74.0268   -3.5934 O.2     1  UNL1       -0.5170
     28 O          18.0096   72.1911   -4.9684 O.3     1  UNL1       -0.2858
     29 O          18.6685   72.1615   -7.2410 O.3     1  UNL1       -0.3226
     30 O          15.3178   69.7015   -7.2734 O.3     1  UNL1       -0.3794
     31 O          15.3441   72.1485   -5.6867 O.3     1  UNL1       -0.3775
     32 O          17.3081   70.4025   -9.0559 O.3     1  UNL1       -0.3792
     33 C          16.5055   70.3144   -6.7793 C.3     1  UNL1        0.1718
     34 C          16.3198   71.8318   -6.6739 C.3     1  UNL1        0.1968
     35 C          17.6613   69.9929   -7.7307 C.3     1  UNL1        0.1723
     36 C          17.6425   72.5169   -6.3083 C.3     1  UNL1        0.2706
     37 C          18.9107   70.7565   -7.2969 C.3     1  UNL1        0.1830
     38 H          15.4816   68.7444   -7.3259 H       1  UNL1        0.2105
     39 H          15.2680   73.1168   -5.6493 H       1  UNL1        0.2106
     40 H          17.3520   71.3727   -9.1014 H       1  UNL1        0.2106
     41 O          21.1204   70.0563   -7.6577 O.co2   1  UNL1       -0.5466
     42 O          19.9749   70.8490   -9.4622 O.co2   1  UNL1       -0.5466
     43 C          20.0297   70.5742   -8.2723 C.2     1  UNL1        0.0799
@<TRIPOS>UNITY_ATOM_ATTR
41 1
charge -1
@<TRIPOS>BOND
     1     1     4    1
     2     1    24    1
     3     1     2    1
     4     1     3    2
     5    25    28    1
     6    25    24    1
     7    25    26    1
     8    25    27    2
     9     6    11    1
    10     6    12    1
    11    29    36    1
    12    29    37    1
    13     7     9    1
    14     7    13    1
    15     8    10    1
    16     8    14    1
    17     4     5    1
    18    28    36    1
    19    30    33    1
    20    30    38    1
    21    31    34    1
    22    31    39    1
    23    32    35    1
    24    32    40    1
    25    41    43   ar
    26    15    19    2
    27    42    43   ar
    28    16    22    2
    29    17    12    1
    30    17    19   ar
    31    17    20   ar
    32    18    19   ar
    33    18    22   ar
    34    18    23    1
    35     9    10    1
    36     9    11    1
    37    10    12    1
    38    11     5    1
    39    33    34    1
    40    33    35    1
    41    34    36    1
    42    35    37    1
    43    37    43    1
    44    20    21   ar
    45    21    22   ar
@<TRIPOS>MOLECULE
UDP-glaA
 43 45 0 0 0
SMALL
GASTEIGER

@<TRIPOS>ATOM
      1 P          22.4278   71.8631   -3.0613 P.3     1  UNL1        0.2189
      2 O          23.8205   71.0641   -3.2597 O.3     1  UNL1       -0.4371
      3 O          22.2534   73.0610   -3.9483 O.2     1  UNL1       -0.5170
      4 O          22.3670   72.1511   -1.4711 O.3     1  UNL1       -0.3112
      5 C          22.6056   71.0763   -0.5783 C.3     1  UNL1        0.1811
      6 O          22.7841   71.0192    1.8173 O.3     1  UNL1       -0.3308
      7 O          20.4424   72.8918    1.8496 O.3     1  UNL1       -0.3794
      8 O          22.5509   74.5677    2.2754 O.3     1  UNL1       -0.3779
      9 C          21.5297   72.8211    0.9274 C.3     1  UNL1        0.1713
     10 C          22.7901   73.3745    1.5580 C.3     1  UNL1        0.1895
     11 C          21.8876   71.3533    0.7349 C.3     1  UNL1        0.1764
     12 C          23.2223   72.2290    2.4574 C.3     1  UNL1        0.2383
     13 H          19.6689   72.4917    1.4170 H       1  UNL1        0.2105
     14 H          22.1751   75.2134    1.6525 H       1  UNL1        0.2106
     15 O          24.7952   69.9195    2.0481 O.2     1  UNL1       -0.2464
     16 O          28.6760   72.1427    3.1595 O.2     1  UNL1       -0.2670
     17 N          24.6457   72.1761    2.6319 N.ar    1  UNL1       -0.2551
     18 N          26.7265   71.0280    2.6023 N.ar    1  UNL1       -0.2743
     19 C          25.3413   70.9662    2.4014 C.ar    1  UNL1        0.3323
     20 C          25.3384   73.3149    3.0277 C.ar    1  UNL1        0.0869
     21 C          26.6594   73.3578    3.2145 C.ar    1  UNL1        0.0795
     22 C          27.4598   72.1367    2.9958 C.ar    1  UNL1        0.2626
     23 H          27.2471   70.1696    2.4430 H       1  UNL1        0.1734
     24 O          21.3150   70.7073   -3.2638 O.3     1  UNL1       -0.2703
     25 P          19.7002   70.7781   -3.2609 P.3     1  UNL1        0.2208
     26 O          19.3983   72.3567   -3.0789 O.3     1  UNL1       -0.4371
     27 O          19.0471   69.8994   -2.2327 O.2     1  UNL1       -0.5170
     28 O          19.2739   70.4535   -4.7830 O.3     1  UNL1       -0.2858
     29 O          18.8893   71.6135   -6.8093 O.3     1  UNL1       -0.3226
     30 O          15.5520   69.1467   -6.5709 O.3     1  UNL1       -0.3794
     31 O          16.5772   70.4864   -4.1918 O.3     1  UNL1       -0.3775
     32 O          16.6645   70.8392   -8.4492 O.3     1  UNL1       -0.3792
     33 C          16.9066   69.5601   -6.4144 C.3     1  UNL1        0.1718
     34 C          16.9866   70.8008   -5.5186 C.3     1  UNL1        0.1968
     35 C          17.4919   69.8718   -7.7945 C.3     1  UNL1        0.1723
     36 C          18.4167   71.3540   -5.4833 C.3     1  UNL1        0.2706
     37 C          18.8958   70.4518   -7.6375 C.3     1  UNL1        0.1830
     38 H          15.5492   68.3623   -7.1456 H       1  UNL1        0.2105
     39 H          16.6535   71.2973   -3.6613 H       1  UNL1        0.2106
     40 H          16.8129   71.7050   -8.0327 H       1  UNL1        0.2106
     41 O          20.6625   71.4854   -8.7840 O.co2   1  UNL1       -0.5466
     42 O          18.9095   70.7377  -10.0350 O.co2   1  UNL1       -0.5466
     43 C          19.4564   70.8917   -8.9525 C.2     1  UNL1        0.0799
@<TRIPOS>UNITY_ATOM_ATTR
41 1
charge -1
@<TRIPOS>BOND
     1     1     4    1
     2     1    24    1
     3     1     2    1
     4     1     3    2
     5    25    28    1
     6    25    24    1
     7    25    26    1
     8    25    27    2
     9     6    11    1
    10     6    12    1
    11    29    36    1
    12    29    37    1
    13     7     9    1
    14     7    13    1
    15     8    10    1
    16     8    14    1
    17     4     5    1
    18    28    36    1
    19    30    33    1
    20    30    38    1
    21    31    34    1
    22    31    39    1
    23    32    35    1
    24    32    40    1
    25    41    43   ar
    26    15    19    2
    27    42    43   ar
    28    16    22    2
    29    17    12    1
    30    17    19   ar
    31    17    20   ar
    32    18    19   ar
    33    18    22   ar
    34    18    23    1
    35     9    10    1
    36     9    11    1
    37    10    12    1
    38    11     5    1
    39    33    34    1
    40    33    35    1
    41    34    36    1
    42    35    37    1
    43    37    43    1
    44    20    21   ar
    45    21    22   ar
@<TRIPOS>MOLECULE
UDP-glaA
 43 45 0 0 0
SMALL
GASTEIGER

@<TRIPOS>ATOM
      1 P          21.9736   72.3069   -5.8487 P.3     1  UNL1        0.2189
      2 O          21.1090   73.5017   -5.1836 O.3     1  UNL1       -0.4371
      3 O          23.0791   72.7563   -6.7586 O.2     1  UNL1       -0.5170
      4 O          20.8589   71.3456   -6.5186 O.3     1  UNL1       -0.3112
      5 C          20.1642   71.8094   -7.6638 C.3     1  UNL1        0.1811
      6 O          18.8334   69.8515   -7.2515 O.3     1  UNL1       -0.3308
      7 O          18.0252   70.0225  -10.1340 O.3     1  UNL1       -0.3794
      8 O          15.8722   71.0924   -8.8475 O.3     1  UNL1       -0.3779
      9 C          18.2772   71.0746   -9.2028 C.3     1  UNL1        0.1713
     10 C          17.1330   71.1893   -8.2178 C.3     1  UNL1        0.1895
     11 C          19.4285   70.6413   -8.3048 C.3     1  UNL1        0.1764
     12 C          17.4073   70.0273   -7.2784 C.3     1  UNL1        0.2383
     13 H          18.7999   69.9610  -10.7185 H       1  UNL1        0.2105
     14 H          15.8196   71.8043   -9.5083 H       1  UNL1        0.2106
     15 O          16.3655   68.0504   -5.5516 O.2     1  UNL1       -0.2464
     16 O          15.6518   71.1108   -2.1806 O.2     1  UNL1       -0.2670
     17 N          16.9425   70.2793   -5.9443 N.ar    1  UNL1       -0.2551
     18 N          16.0103   69.5757   -3.8743 N.ar    1  UNL1       -0.2743
     19 C          16.4367   69.2166   -5.1597 C.ar    1  UNL1        0.3323
     20 C          16.9903   71.5685   -5.4256 C.ar    1  UNL1        0.0869
     21 C          16.5803   71.8948   -4.1979 C.ar    1  UNL1        0.0795
     22 C          16.0377   70.8437   -3.3145 C.ar    1  UNL1        0.2626
     23 H          15.6423   68.8278   -3.2926 H       1  UNL1        0.1734
     24 O          22.4629   71.4552   -4.5641 O.3     1  UNL1       -0.2703
     25 P          23.4589   71.8431   -3.3516 P.3     1  UNL1        0.2208
     26 O          24.1347   73.2241   -3.8539 O.3     1  UNL1       -0.4371
     27 O          24.4424   70.7658   -2.9938 O.2     1  UNL1       -0.5170
     28 O          22.4822   72.2818   -2.1444 O.3     1  UNL1       -0.2858
     29 O          22.1827   74.1686   -0.7481 O.3     1  UNL1       -0.3226
     30 O          21.9488   71.0298    1.9672 O.3     1  UNL1       -0.3794
     31 O          23.9254   70.9899   -0.1770 O.3     1  UNL1       -0.3775
     32 O          21.5178   73.7579    2.0137 O.3     1  UNL1       -0.3792
     33 C          21.7967   71.7280    0.7344 C.3     1  UNL1        0.1718
     34 C          23.1652   72.1392    0.1808 C.3     1  UNL1        0.1968
     35 C          20.9330   72.9698    0.9717 C.3     1  UNL1        0.1723
     36 C          23.0049   73.0370   -1.0524 C.3     1  UNL1        0.2706
     37 C          20.8759   73.8068   -0.3043 C.3     1  UNL1        0.1830
     38 H          21.0598   70.7919    2.2811 H       1  UNL1        0.2105
     39 H          24.7766   71.2993   -0.5298 H       1  UNL1        0.2106
     40 H          22.3083   74.1997    1.6602 H       1  UNL1        0.2106
     41 O          19.0589   74.9009    0.6983 O.co2   1  UNL1       -0.5466
     42 O          20.4887   76.1789   -0.5345 O.co2   1  UNL1       -0.5466
     43 C          20.1497   75.0952   -0.0816 C.2     1  UNL1        0.0799
@<TRIPOS>UNITY_ATOM_ATTR
41 1
charge -1
@<TRIPOS>BOND
     1     1     4    1
     2     1    24    1
     3     1     2    1
     4     1     3    2
     5    25    28    1
     6    25    24    1
     7    25    26    1
     8    25    27    2
     9     6    11    1
    10     6    12    1
    11    29    36    1
    12    29    37    1
    13     7     9    1
    14     7    13    1
    15     8    10    1
    16     8    14    1
    17     4     5    1
    18    28    36    1
    19    30    33    1
    20    30    38    1
    21    31    34    1
    22    31    39    1
    23    32    35    1
    24    32    40    1
    25    41    43   ar
    26    15    19    2
    27    42    43   ar
    28    16    22    2
    29    17    12    1
    30    17    19   ar
    31    17    20   ar
    32    18    19   ar
    33    18    22   ar
    34    18    23    1
    35     9    10    1
    36     9    11    1
    37    10    12    1
    38    11     5    1
    39    33    34    1
    40    33    35    1
    41    34    36    1
    42    35    37    1
    43    37    43    1
    44    20    21   ar
    45    21    22   ar
@<TRIPOS>MOLECULE
UDP-glaA
 43 45 0 0 0
SMALL
GASTEIGER

@<TRIPOS>ATOM
      1 P          20.4755   71.2453   -1.2833 P.3     1  UNL1        0.2189
      2 O          20.9249   70.4786    0.0685 O.3     1  UNL1       -0.4371
      3 O          19.9330   72.6290   -1.0757 O.2     1  UNL1       -0.5170
      4 O          19.4774   70.2008   -2.0103 O.3     1  UNL1       -0.3112
      5 C          19.1818   70.3902   -3.3836 C.3     1  UNL1        0.1811
      6 O          17.5282   71.4249   -4.7870 O.3     1  UNL1       -0.3308
      7 O          15.4944   69.9026   -3.1941 O.3     1  UNL1       -0.3794
      8 O          15.7059   68.4132   -5.4684 O.3     1  UNL1       -0.3779
      9 C          16.8058   69.5081   -3.5970 C.3     1  UNL1        0.1713
     10 C          16.8248   69.1807   -5.0752 C.3     1  UNL1        0.1895
     11 C          17.7064   70.7345   -3.5306 C.3     1  UNL1        0.1764
     12 C          16.8349   70.5633   -5.7047 C.3     1  UNL1        0.2383
     13 H          15.5396   70.1395   -2.2521 H       1  UNL1        0.2105
     14 H          15.7129   67.5948   -4.9426 H       1  UNL1        0.2106
     15 O          15.5362   70.5601   -8.2124 O.2     1  UNL1       -0.2464
     16 O          19.5408   70.6455  -10.4915 O.2     1  UNL1       -0.2670
     17 N          17.5133   70.5849   -6.9691 N.ar    1  UNL1       -0.2551
     18 N          17.5312   70.6021   -9.3457 N.ar    1  UNL1       -0.2743
     19 C          16.7677   70.5804   -8.1711 C.ar    1  UNL1        0.3323
     20 C          18.9030   70.6102   -7.0098 C.ar    1  UNL1        0.0869
     21 C          19.6164   70.6312   -8.1378 C.ar    1  UNL1        0.0795
     22 C          18.9143   70.6272   -9.4365 C.ar    1  UNL1        0.2626
     23 H          17.0163   70.5986  -10.2220 H       1  UNL1        0.1734
     24 O          21.8060   71.1739   -2.1997 O.3     1  UNL1       -0.2703
     25 P          23.3250   71.6391   -1.9015 P.3     1  UNL1        0.2208
     26 O          24.1956   70.7457   -2.9311 O.3     1  UNL1       -0.4371
     27 O          23.7385   71.5074   -0.4636 O.2     1  UNL1       -0.5170
     28 O          23.4152   73.1404   -2.4862 O.3     1  UNL1       -0.2858
     29 O          23.7968   73.0015   -4.8174 O.3     1  UNL1       -0.3226
     30 O          23.7544   77.1098   -4.1850 O.3     1  UNL1       -0.3794
     31 O          25.0819   75.3328   -2.2913 O.3     1  UNL1       -0.3775
     32 O          23.8030   75.4173   -6.3675 O.3     1  UNL1       -0.3792
     33 C          23.4084   75.7391   -4.0062 C.3     1  UNL1        0.1718
     34 C          24.6378   74.9285   -3.5821 C.3     1  UNL1        0.1968
     35 C          22.8499   75.1935   -5.3233 C.3     1  UNL1        0.1723
     36 C          24.3165   73.4291   -3.5541 C.3     1  UNL1        0.2706
     37 C          22.6061   73.6915   -5.1942 C.3     1  UNL1        0.1830
     38 H          22.9488   77.5829   -4.4546 H       1  UNL1        0.2105
     39 H          25.8533   74.7874   -2.0624 H       1  UNL1        0.2106
     40 H          24.5381   74.7912   -6.2542 H       1  UNL1        0.2106
     41 O          21.2742   73.8844   -7.1159 O.co2   1  UNL1       -0.5466
     42 O          22.5964   72.0346   -6.9506 O.co2   1  UNL1       -0.5466
     43 C          22.1825   73.0919   -6.4973 C.2     1  UNL1        0.0799
@<TRIPOS>UNITY_ATOM_ATTR
41 1
charge -1
@<TRIPOS>BOND
     1     1     4    1
     2     1    24    1
     3     1     2    1
     4     1     3    2
     5    25    28    1
     6    25    24    1
     7    25    26    1
     8    25    27    2
     9     6    11    1
    10     6    12    1
    11    29    36    1
    12    29    37    1
    13     7     9    1
    14     7    13    1
    15     8    10    1
    16     8    14    1
    17     4     5    1
    18    28    36    1
    19    30    33    1
    20    30    38    1
    21    31    34    1
    22    31    39    1
    23    32    35    1
    24    32    40    1
    25    41    43   ar
    26    15    19    2
    27    42    43   ar
    28    16    22    2
    29    17    12    1
    30    17    19   ar
    31    17    20   ar
    32    18    19   ar
    33    18    22   ar
    34    18    23    1
    35     9    10    1
    36     9    11    1
    37    10    12    1
    38    11     5    1
    39    33    34    1
    40    33    35    1
    41    34    36    1
    42    35    37    1
    43    37    43    1
    44    20    21   ar
    45    21    22   ar
@<TRIPOS>MOLECULE
UDP-glaA
 43 45 0 0 0
SMALL
GASTEIGER

@<TRIPOS>ATOM
      1 P          23.6208   72.3105   -3.4761 P.3     1  UNL1        0.2189
      2 O          24.2851   70.8872   -3.0883 O.3     1  UNL1       -0.4371
      3 O          24.6016   73.4109   -3.7576 O.2     1  UNL1       -0.5170
      4 O          22.5740   72.5919   -2.2759 O.3     1  UNL1       -0.3112
      5 C          23.0803   72.7763   -0.9648 C.3     1  UNL1        0.1811
      6 O          24.1781   71.2791    0.5608 O.3     1  UNL1       -0.3308
      7 O          21.4661   70.1036    1.0655 O.3     1  UNL1       -0.3794
      8 O          21.8306   71.7137    3.2360 O.3     1  UNL1       -0.3779
      9 C          21.8301   71.4615    0.8179 C.3     1  UNL1        0.1713
     10 C          22.4979   72.0574    2.0392 C.3     1  UNL1        0.1895
     11 C          22.9638   71.4659   -0.1992 C.3     1  UNL1        0.1764
     12 C          23.8937   71.4632    1.9574 C.3     1  UNL1        0.2383
     13 H          21.0790   69.7532    0.2453 H       1  UNL1        0.2105
     14 H          20.9152   72.0343    3.1631 H       1  UNL1        0.2106
     15 O          26.5959   70.7391    2.3433 O.2     1  UNL1       -0.2464
     16 O          27.6282   74.8481    4.1570 O.2     1  UNL1       -0.2670
     17 N          24.8902   72.3240    2.5276 N.ar    1  UNL1       -0.2551
     18 N          27.1081   72.7855    3.2467 N.ar    1  UNL1       -0.2743
     19 C          26.2190   71.8635    2.6787 C.ar    1  UNL1        0.3323
     20 C          24.5470   73.6098    2.9308 C.ar    1  UNL1        0.0869
     21 C          25.4063   74.4772    3.4702 C.ar    1  UNL1        0.0795
     22 C          26.8135   74.0744    3.6634 C.ar    1  UNL1        0.2626
     23 H          28.0689   72.4758    3.3654 H       1  UNL1        0.1734
     24 O          22.6563   71.9338   -4.7183 O.3     1  UNL1       -0.2703
     25 P          21.9937   72.8604   -5.8650 P.3     1  UNL1        0.2208
     26 O          23.0580   72.7660   -7.0793 O.3     1  UNL1       -0.4371
     27 O          21.6819   74.2610   -5.4214 O.2     1  UNL1       -0.5170
     28 O          20.7133   72.0230   -6.3782 O.3     1  UNL1       -0.2858
     29 O          18.4787   72.1785   -7.1409 O.3     1  UNL1       -0.3226
     30 O          18.0610   69.9217   -3.6752 O.3     1  UNL1       -0.3794
     31 O          19.8835   72.1973   -3.7507 O.3     1  UNL1       -0.3775
     32 O          16.4421   70.6823   -5.7801 O.3     1  UNL1       -0.3792
     33 C          18.6630   70.4172   -4.8678 C.3     1  UNL1        0.1718
     34 C          18.9113   71.9251   -4.7544 C.3     1  UNL1        0.1968
     35 C          17.7335   70.1267   -6.0493 C.3     1  UNL1        0.1723
     36 C          19.3984   72.4974   -6.0914 C.3     1  UNL1        0.2706
     37 C          18.2931   70.7745   -7.3139 C.3     1  UNL1        0.1830
     38 H          17.9202   68.9667   -3.7925 H       1  UNL1        0.2105
     39 H          20.0141   73.1601   -3.7221 H       1  UNL1        0.2106
     40 H          16.4955   71.6483   -5.8751 H       1  UNL1        0.2106
     41 O          16.2379   71.3731   -8.2740 O.co2   1  UNL1       -0.5466
     42 O          17.5542   69.9327   -9.4529 O.co2   1  UNL1       -0.5466
     43 C          17.3521   70.6267   -8.4670 C.2     1  UNL1        0.0799
@<TRIPOS>UNITY_ATOM_ATTR
41 1
charge -1
@<TRIPOS>BOND
     1     1     4    1
     2     1    24    1
     3     1     2    1
     4     1     3    2
     5    25    28    1
     6    25    24    1
     7    25    26    1
     8    25    27    2
     9     6    11    1
    10     6    12    1
    11    29    36    1
    12    29    37    1
    13     7     9    1
    14     7    13    1
    15     8    10    1
    16     8    14    1
    17     4     5    1
    18    28    36    1
    19    30    33    1
    20    30    38    1
    21    31    34    1
    22    31    39    1
    23    32    35    1
    24    32    40    1
    25    41    43   ar
    26    15    19    2
    27    42    43   ar
    28    16    22    2
    29    17    12    1
    30    17    19   ar
    31    17    20   ar
    32    18    19   ar
    33    18    22   ar
    34    18    23    1
    35     9    10    1
    36     9    11    1
    37    10    12    1
    38    11     5    1
    39    33    34    1
    40    33    35    1
    41    34    36    1
    42    35    37    1
    43    37    43    1
    44    20    21   ar
    45    21    22   ar
