@<TRIPOS>MOLECULE
*****
 43 45 0 0 0
SMALL
GASTEIGER

@<TRIPOS>ATOM
      1 P          22.6785   71.4659   -2.8129 P.3     1  UNL1        0.2189
      2 O          23.0284   72.9215   -3.4274 O.co2   1  UNL1       -0.4371
      3 O          23.5689   70.3511   -3.2780 O.2     1  UNL1       -0.5170
      4 O          21.1014   71.2818   -3.1240 O.3     1  UNL1       -0.3112
      5 C          20.3967   72.3622   -3.7077 C.3     1  UNL1        0.1811
      6 O          18.2372   72.3120   -4.7619 O.3     1  UNL1       -0.3308
      7 O          17.2938   70.8232   -2.3360 O.3     1  UNL1       -0.3794
      8 O          17.6301   68.8292   -4.1655 O.3     1  UNL1       -0.3779
      9 C          18.5536   70.7557   -3.0045 C.3     1  UNL1        0.1713
     10 C          18.4164   69.9939   -4.3057 C.3     1  UNL1        0.1895
     11 C          18.9033   72.1557   -3.4902 C.3     1  UNL1        0.1764
     12 C          17.7712   71.0295   -5.2109 C.3     1  UNL1        0.2383
     13 H          17.0492   69.9401   -2.0166 H       1  UNL1        0.2105
     14 H          18.0837   68.2013   -3.5807 H       1  UNL1        0.2106
     15 O          15.9547   70.3697   -7.2703 O.2     1  UNL1       -0.2464
     16 O          19.2815   70.3901  -10.4604 O.2     1  UNL1       -0.2670
     17 N          18.1358   70.8563   -6.5885 N.ar    1  UNL1       -0.2551
     18 N          17.6135   70.3795   -8.8570 N.ar    1  UNL1       -0.2743
     19 C          17.1463   70.5251   -7.5442 C.ar    1  UNL1        0.3323
     20 C          19.4591   71.0159   -6.9812 C.ar    1  UNL1        0.0869
     21 C          19.8893   70.8740   -8.2364 C.ar    1  UNL1        0.0795
     22 C          18.9193   70.5275   -9.2958 C.ar    1  UNL1        0.2626
     23 H          16.9434   70.1469   -9.5398 H       1  UNL1        0.1734
     24 O          22.7060   71.7290   -1.2183 O.3     1  UNL1       -0.2703
     25 P          22.4374   70.7331    0.0266 P.3     1  UNL1        0.2208
     26 O          23.7236   69.7507   -0.0015 O.co2   1  UNL1       -0.4371
     27 O          21.1157   70.0231   -0.0269 O.2     1  UNL1       -0.5170
     28 O          22.6530   71.6488    1.3372 O.3     1  UNL1       -0.2858
     29 O          21.8556   72.4137    3.4320 O.3     1  UNL1       -0.3226
     30 O          21.1536   75.6917    1.0174 O.3     1  UNL1       -0.3794
     31 O          20.5840   72.9933    0.0536 O.3     1  UNL1       -0.3775
     32 O          23.3847   75.7031    2.8809 O.3     1  UNL1       -0.3792
     33 C          21.8416   74.5208    1.4576 C.3     1  UNL1        0.1718
     34 C          20.8961   73.3206    1.4027 C.3     1  UNL1        0.1968
     35 C          22.3136   74.7613    2.8933 C.3     1  UNL1        0.1723
     36 C          21.5215   72.1000    2.0794 C.3     1  UNL1        0.2706
     37 C          22.8063   73.4707    3.5413 C.3     1  UNL1        0.1830
     38 H          20.8442   75.5621    0.1071 H       1  UNL1        0.2105
     39 H          20.1870   73.7634   -0.3820 H       1  UNL1        0.2106
     40 H          23.0843   76.5292    2.4708 H       1  UNL1        0.2106
     41 O          22.0043   72.9269    5.6773 O.co2   1  UNL1       -0.5466
     42 O          23.8029   74.3239    5.5662 O.co2   1  UNL1       -0.5466
     43 C          22.9508   73.6404    5.0187 C.2     1  UNL1        0.0799
@<TRIPOS>UNITY_ATOM_ATTR
2 1
charge -1
26 1
charge -1
41 1
charge -1
@<TRIPOS>BOND
     1     1     4    1
     2     1    24    1
     3     1     2    1
     4     1     3    2
     5    25    28    1
     6    25    24    1
     7    25    26    1
     8    25    27    2
     9     6    11    1
    10     6    12    1
    11    29    36    1
    12    29    37    1
    13     7     9    1
    14     7    13    1
    15     8    10    1
    16     8    14    1
    17     4     5    1
    18    28    36    1
    19    30    33    1
    20    30    38    1
    21    31    34    1
    22    31    39    1
    23    32    35    1
    24    32    40    1
    25    41    43   ar
    26    15    19    2
    27    42    43   ar
    28    16    22    2
    29    17    12    1
    30    17    19   ar
    31    17    20   ar
    32    18    19   ar
    33    18    22   ar
    34    18    23    1
    35     9    10    1
    36     9    11    1
    37    10    12    1
    38    11     5    1
    39    33    34    1
    40    33    35    1
    41    34    36    1
    42    35    37    1
    43    37    43    1
    44    20    21   ar
    45    21    22   ar
@<TRIPOS>MOLECULE
*****
 43 45 0 0 0
SMALL
GASTEIGER

@<TRIPOS>ATOM
      1 P          21.9965   73.6224   -6.0229 P.3     1  UNL1        0.2189
      2 O          22.1408   74.8888   -5.0258 O.co2   1  UNL1       -0.4371
      3 O          22.9043   73.6498   -7.2174 O.2     1  UNL1       -0.5170
      4 O          20.4122   73.5607   -6.3458 O.3     1  UNL1       -0.3112
      5 C          19.9165   74.3043   -7.4439 C.3     1  UNL1        0.1811
      6 O          19.6395   71.9954   -8.0521 O.3     1  UNL1       -0.3308
      7 O          17.9876   72.9912  -10.3479 O.3     1  UNL1       -0.3794
      8 O          16.0952   72.1828   -8.5587 O.3     1  UNL1       -0.3779
      9 C          18.0864   73.5007   -9.0178 C.3     1  UNL1        0.1713
     10 C          17.3477   72.5963   -8.0540 C.3     1  UNL1        0.1895
     11 C          19.5299   73.3426   -8.5602 C.3     1  UNL1        0.1764
     12 C          18.3232   71.4428   -7.8934 C.3     1  UNL1        0.2383
     13 H          17.0739   73.0814  -10.6621 H       1  UNL1        0.2105
     14 H          15.5102   72.9527   -8.6425 H       1  UNL1        0.2106
     15 O          16.0886   69.9712   -6.9890 O.2     1  UNL1       -0.2464
     16 O          18.0753   69.1055   -2.9211 O.2     1  UNL1       -0.2670
     17 N          18.2299   70.8221   -6.6023 N.ar    1  UNL1       -0.2551
     18 N          17.0798   69.5423   -4.9635 N.ar    1  UNL1       -0.2743
     19 C          17.0629   70.1056   -6.2462 C.ar    1  UNL1        0.3323
     20 C          19.2864   70.9246   -5.7055 C.ar    1  UNL1        0.0869
     21 C          19.2880   70.3821   -4.4863 C.ar    1  UNL1        0.0795
     22 C          18.1063   69.6177   -4.0360 C.ar    1  UNL1        0.2626
     23 H          16.2774   69.0404   -4.6923 H       1  UNL1        0.1734
     24 O          22.2162   72.3589   -5.0390 O.3     1  UNL1       -0.2703
     25 P          23.0602   72.2158   -3.6675 P.3     1  UNL1        0.2208
     26 O          24.3151   73.2115   -3.8999 O.co2   1  UNL1       -0.4371
     27 O          23.4448   70.8055   -3.3255 O.2     1  UNL1       -0.5170
     28 O          22.1569   72.9526   -2.5523 O.3     1  UNL1       -0.2858
     29 O          21.4707   71.1748   -1.1460 O.3     1  UNL1       -0.3226
     30 O          20.0763   74.4686    0.9216 O.3     1  UNL1       -0.3794
     31 O          19.8016   74.3181   -1.9830 O.3     1  UNL1       -0.3775
     32 O          22.4569   73.0726    1.8353 O.3     1  UNL1       -0.3792
     33 C          20.9632   73.7450    0.0685 C.3     1  UNL1        0.1718
     34 C          20.1963   73.2332   -1.1511 C.3     1  UNL1        0.1968
     35 C          21.5363   72.5724    0.8675 C.3     1  UNL1        0.1723
     36 C          21.0521   72.2645   -1.9686 C.3     1  UNL1        0.2706
     37 C          22.2685   71.5862   -0.0381 C.3     1  UNL1        0.1830
     38 H          19.6997   75.2188    0.4351 H       1  UNL1        0.2105
     39 H          19.2585   74.9368   -1.4706 H       1  UNL1        0.2106
     40 H          22.0034   73.7017    2.4180 H       1  UNL1        0.2106
     41 O          22.2777   70.4341    2.0050 O.co2   1  UNL1       -0.5466
     42 O          22.9235   69.2719    0.1526 O.co2   1  UNL1       -0.5466
     43 C          22.5331   70.3028    0.6797 C.2     1  UNL1        0.0799
@<TRIPOS>UNITY_ATOM_ATTR
2 1
charge -1
26 1
charge -1
41 1
charge -1
@<TRIPOS>BOND
     1     1     4    1
     2     1    24    1
     3     1     2    1
     4     1     3    2
     5    25    28    1
     6    25    24    1
     7    25    26    1
     8    25    27    2
     9     6    11    1
    10     6    12    1
    11    29    36    1
    12    29    37    1
    13     7     9    1
    14     7    13    1
    15     8    10    1
    16     8    14    1
    17     4     5    1
    18    28    36    1
    19    30    33    1
    20    30    38    1
    21    31    34    1
    22    31    39    1
    23    32    35    1
    24    32    40    1
    25    41    43   ar
    26    15    19    2
    27    42    43   ar
    28    16    22    2
    29    17    12    1
    30    17    19   ar
    31    17    20   ar
    32    18    19   ar
    33    18    22   ar
    34    18    23    1
    35     9    10    1
    36     9    11    1
    37    10    12    1
    38    11     5    1
    39    33    34    1
    40    33    35    1
    41    34    36    1
    42    35    37    1
    43    37    43    1
    44    20    21   ar
    45    21    22   ar
@<TRIPOS>MOLECULE
*****
 43 45 0 0 0
SMALL
GASTEIGER

@<TRIPOS>ATOM
      1 P          22.8121   71.7963   -2.2876 P.3     1  UNL1        0.2189
      2 O          23.4900   73.2615   -2.4001 O.co2   1  UNL1       -0.4371
      3 O          23.3885   70.7593   -3.2063 O.2     1  UNL1       -0.5170
      4 O          21.2296   72.0862   -2.4600 O.3     1  UNL1       -0.3112
      5 C          20.5464   71.4852   -3.5447 C.3     1  UNL1        0.1811
      6 O          18.5908   72.2486   -4.7153 O.3     1  UNL1       -0.3308
      7 O          17.0055   71.0323   -2.4795 O.3     1  UNL1       -0.3794
      8 O          16.7885   69.1605   -4.4506 O.3     1  UNL1       -0.3779
      9 C          18.2164   70.5746   -3.0818 C.3     1  UNL1        0.1713
     10 C          17.9329   69.9882   -4.4485 C.3     1  UNL1        0.1895
     11 C          19.0595   71.7945   -3.4271 C.3     1  UNL1        0.1764
     12 C          17.7537   71.2360   -5.2962 C.3     1  UNL1        0.2383
     13 H          16.4500   70.2704   -2.2499 H       1  UNL1        0.2105
     14 H          16.9529   68.3802   -3.8975 H       1  UNL1        0.2106
     15 O          16.0172   70.3520   -7.3406 O.2     1  UNL1       -0.2464
     16 O          19.3710   70.4882  -10.4993 O.2     1  UNL1       -0.2670
     17 N          18.1468   71.0320   -6.6617 N.ar    1  UNL1       -0.2551
     18 N          17.6894   70.4197   -8.9116 N.ar    1  UNL1       -0.2743
     19 C          17.1968   70.5857   -7.6106 C.ar    1  UNL1        0.3323
     20 C          19.4589   71.2748   -7.0494 C.ar    1  UNL1        0.0869
     21 C          19.9137   71.1122   -8.2934 C.ar    1  UNL1        0.0795
     22 C          18.9855   70.6476   -9.3451 C.ar    1  UNL1        0.2626
     23 H          17.0470   70.1077   -9.5893 H       1  UNL1        0.1734
     24 O          22.9492   71.4529   -0.7141 O.3     1  UNL1       -0.2703
     25 P          22.0696   70.4920    0.2432 P.3     1  UNL1        0.2208
     26 O          23.1905   69.6572    1.0599 O.co2   1  UNL1       -0.4371
     27 O          21.0740   69.6388   -0.4881 O.2     1  UNL1       -0.5170
     28 O          21.4237   71.4853    1.3381 O.3     1  UNL1       -0.2858
     29 O          21.9837   73.7784    1.1447 O.3     1  UNL1       -0.3226
     30 O          20.2529   73.6489    4.8938 O.3     1  UNL1       -0.3794
     31 O          22.0905   71.5454    4.0376 O.3     1  UNL1       -0.3775
     32 O          18.7784   74.7495    2.6431 O.3     1  UNL1       -0.3792
     33 C          20.4483   73.2589    3.5345 C.3     1  UNL1        0.1718
     34 C          21.8844   72.7704    3.3436 C.3     1  UNL1        0.1968
     35 C          20.1786   74.4778    2.6493 C.3     1  UNL1        0.1723
     36 C          22.1990   72.5621    1.8616 C.3     1  UNL1        0.2706
     37 C          20.6348   74.2354    1.2135 C.3     1  UNL1        0.1830
     38 H          20.4188   72.8901    5.4751 H       1  UNL1        0.2105
     39 H          21.8925   71.6702    4.9787 H       1  UNL1        0.2106
     40 H          18.4753   74.9055    3.5512 H       1  UNL1        0.2106
     41 O          19.6943   76.3553    0.8629 O.co2   1  UNL1       -0.5466
     42 O          21.4794   75.7819   -0.4347 O.co2   1  UNL1       -0.5466
     43 C          20.6753   75.5169    0.4463 C.2     1  UNL1        0.0799
@<TRIPOS>UNITY_ATOM_ATTR
2 1
charge -1
26 1
charge -1
41 1
charge -1
@<TRIPOS>BOND
     1     1     4    1
     2     1    24    1
     3     1     2    1
     4     1     3    2
     5    25    28    1
     6    25    24    1
     7    25    26    1
     8    25    27    2
     9     6    11    1
    10     6    12    1
    11    29    36    1
    12    29    37    1
    13     7     9    1
    14     7    13    1
    15     8    10    1
    16     8    14    1
    17     4     5    1
    18    28    36    1
    19    30    33    1
    20    30    38    1
    21    31    34    1
    22    31    39    1
    23    32    35    1
    24    32    40    1
    25    41    43   ar
    26    15    19    2
    27    42    43   ar
    28    16    22    2
    29    17    12    1
    30    17    19   ar
    31    17    20   ar
    32    18    19   ar
    33    18    22   ar
    34    18    23    1
    35     9    10    1
    36     9    11    1
    37    10    12    1
    38    11     5    1
    39    33    34    1
    40    33    35    1
    41    34    36    1
    42    35    37    1
    43    37    43    1
    44    20    21   ar
    45    21    22   ar
@<TRIPOS>MOLECULE
*****
 43 45 0 0 0
SMALL
GASTEIGER

@<TRIPOS>ATOM
      1 P          22.9060   72.5475   -3.6565 P.3     1  UNL1        0.2189
      2 O          23.2340   73.0708   -5.1523 O.co2   1  UNL1       -0.4371
      3 O          23.5154   71.2232   -3.3007 O.2     1  UNL1       -0.5170
      4 O          21.2926   72.6265   -3.5623 O.3     1  UNL1       -0.3112
      5 C          20.5552   71.4179   -3.5657 C.3     1  UNL1        0.1811
      6 O          18.6083   72.2113   -4.7310 O.3     1  UNL1       -0.3308
      7 O          17.0091   70.9931   -2.5061 O.3     1  UNL1       -0.3794
      8 O          16.7739   69.1400   -4.4929 O.3     1  UNL1       -0.3779
      9 C          18.2156   70.5278   -3.1116 C.3     1  UNL1        0.1713
     10 C          17.9269   69.9557   -4.4833 C.3     1  UNL1        0.1895
     11 C          19.0715   71.7417   -3.4464 C.3     1  UNL1        0.1764
     12 C          17.7611   71.2123   -5.3207 C.3     1  UNL1        0.2383
     13 H          16.4456   70.2351   -2.2832 H       1  UNL1        0.2105
     14 H          16.9298   68.3535   -3.9461 H       1  UNL1        0.2106
     15 O          16.0267   70.3233   -7.3646 O.2     1  UNL1       -0.2464
     16 O          19.3733   70.4929  -10.5294 O.2     1  UNL1       -0.2670
     17 N          18.1530   71.0155   -6.6876 N.ar    1  UNL1       -0.2551
     18 N          17.6954   70.4077   -8.9387 N.ar    1  UNL1       -0.2743
     19 C          17.2041   70.5659   -7.6361 C.ar    1  UNL1        0.3323
     20 C          19.4627   71.2686   -7.0770 C.ar    1  UNL1        0.0869
     21 C          19.9161   71.1132   -8.3224 C.ar    1  UNL1        0.0795
     22 C          18.9890   70.6459   -9.3739 C.ar    1  UNL1        0.2626
     23 H          17.0538   70.0936   -9.6162 H       1  UNL1        0.1734
     24 O          23.3850   73.7805   -2.7275 O.3     1  UNL1       -0.2703
     25 P          22.5363   74.9144   -1.9479 P.3     1  UNL1        0.2208
     26 O          21.1021   74.8839   -2.6980 O.co2   1  UNL1       -0.4371
     27 O          23.1917   76.2648   -1.9213 O.2     1  UNL1       -0.5170
     28 O          22.2479   74.2813   -0.4924 O.3     1  UNL1       -0.2858
     29 O          21.4962   72.0385   -0.3749 O.3     1  UNL1       -0.3226
     30 O          20.6397   73.4124    3.4260 O.3     1  UNL1       -0.3794
     31 O          20.1081   75.0863    1.0916 O.3     1  UNL1       -0.3775
     32 O          22.9258   71.6718    2.9842 O.3     1  UNL1       -0.3792
     33 C          21.3697   73.3364    2.2015 C.3     1  UNL1        0.1718
     34 C          20.4530   73.7070    1.0354 C.3     1  UNL1        0.1968
     35 C          21.8792   71.9021    2.0430 C.3     1  UNL1        0.1723
     36 C          21.1288   73.4168   -0.3054 C.3     1  UNL1        0.2706
     37 C          22.4233   71.6562    0.6387 C.3     1  UNL1        0.1830
     38 H          20.3060   74.3152    3.5482 H       1  UNL1        0.2105
     39 H          19.6790   75.2776    1.9399 H       1  UNL1        0.2106
     40 H          22.5926   71.8250    3.8822 H       1  UNL1        0.2106
     41 O          21.4217   69.5427    0.4618 O.co2   1  UNL1       -0.5466
     42 O          23.6779   69.6537    0.1514 O.co2   1  UNL1       -0.5466
     43 C          22.6086   70.1947    0.3899 C.2     1  UNL1        0.0799
@<TRIPOS>UNITY_ATOM_ATTR
2 1
charge -1
26 1
charge -1
41 1
charge -1
@<TRIPOS>BOND
     1     1     4    1
     2     1    24    1
     3     1     2    1
     4     1     3    2
     5    25    28    1
     6    25    24    1
     7    25    26    1
     8    25    27    2
     9     6    11    1
    10     6    12    1
    11    29    36    1
    12    29    37    1
    13     7     9    1
    14     7    13    1
    15     8    10    1
    16     8    14    1
    17     4     5    1
    18    28    36    1
    19    30    33    1
    20    30    38    1
    21    31    34    1
    22    31    39    1
    23    32    35    1
    24    32    40    1
    25    41    43   ar
    26    15    19    2
    27    42    43   ar
    28    16    22    2
    29    17    12    1
    30    17    19   ar
    31    17    20   ar
    32    18    19   ar
    33    18    22   ar
    34    18    23    1
    35     9    10    1
    36     9    11    1
    37    10    12    1
    38    11     5    1
    39    33    34    1
    40    33    35    1
    41    34    36    1
    42    35    37    1
    43    37    43    1
    44    20    21   ar
    45    21    22   ar
@<TRIPOS>MOLECULE
*****
 43 45 0 0 0
SMALL
GASTEIGER

@<TRIPOS>ATOM
      1 P          22.2310   71.0864   -2.5510 P.3     1  UNL1        0.2189
      2 O          23.5642   70.7386   -3.3998 O.co2   1  UNL1       -0.4371
      3 O          21.1865   70.0091   -2.5423 O.2     1  UNL1       -0.5170
      4 O          21.7588   72.5181   -3.1387 O.3     1  UNL1       -0.3112
      5 C          21.2899   72.5798   -4.4731 C.3     1  UNL1        0.1811
      6 O          19.6215   73.5814   -5.8842 O.3     1  UNL1       -0.3308
      7 O          17.8351   73.5536   -3.4759 O.3     1  UNL1       -0.3794
      8 O          16.9577   71.3957   -4.8935 O.3     1  UNL1       -0.3779
      9 C          18.8146   72.5990   -3.8855 C.3     1  UNL1        0.1713
     10 C          18.3024   71.7937   -5.0608 C.3     1  UNL1        0.1895
     11 C          19.9808   73.3582   -4.5035 C.3     1  UNL1        0.1764
     12 C          18.4852   72.7666   -6.2133 C.3     1  UNL1        0.2383
     13 H          17.0800   73.0921   -3.0779 H       1  UNL1        0.2105
     14 H          16.8940   70.7770   -4.1484 H       1  UNL1        0.2106
     15 O          17.2730   73.4647   -8.6668 O.2     1  UNL1       -0.2464
     16 O          19.5166   70.1360  -10.9318 O.2     1  UNL1       -0.2670
     17 N          18.7346   72.0991   -7.4595 N.ar    1  UNL1       -0.2551
     18 N          18.3909   71.8055   -9.7923 N.ar    1  UNL1       -0.2743
     19 C          18.0736   72.5282   -8.6347 C.ar    1  UNL1        0.3323
     20 C          19.6257   71.0341   -7.5097 C.ar    1  UNL1        0.0869
     21 C          19.9181   70.3551   -8.6207 C.ar    1  UNL1        0.0795
     22 C          19.2698   70.7391   -9.8918 C.ar    1  UNL1        0.2626
     23 H          17.9415   72.0846  -10.6227 H       1  UNL1        0.1734
     24 O          22.8176   71.4674   -1.0938 O.3     1  UNL1       -0.2703
     25 P          22.6204   70.7618    0.3474 P.3     1  UNL1        0.2208
     26 O          23.8361   69.6947    0.4062 O.co2   1  UNL1       -0.4371
     27 O          21.2603   70.1621    0.5585 O.2     1  UNL1       -0.5170
     28 O          23.0243   71.8987    1.4183 O.3     1  UNL1       -0.2858
     29 O          22.6029   72.9901    3.4775 O.3     1  UNL1       -0.3226
     30 O          21.2022   75.7631    0.7542 O.3     1  UNL1       -0.3794
     31 O          20.6507   72.9179    0.3872 O.3     1  UNL1       -0.3775
     32 O          23.7505   76.1860    2.0876 O.3     1  UNL1       -0.3792
     33 C          22.0466   74.7147    1.2292 C.3     1  UNL1        0.1718
     34 C          21.1984   73.4890    1.5697 C.3     1  UNL1        0.1968
     35 C          22.7741   75.2217    2.4765 C.3     1  UNL1        0.1723
     36 C          22.0320   72.4310    2.2940 C.3     1  UNL1        0.2706
     37 C          23.4773   74.0846    3.2120 C.3     1  UNL1        0.1830
     38 H          20.7294   75.4638   -0.0383 H       1  UNL1        0.2105
     39 H          20.1207   73.5839   -0.0775 H       1  UNL1        0.2106
     40 H          23.3159   76.9151    1.6182 H       1  UNL1        0.2106
     41 O          23.3895   75.7397    4.8717 O.co2   1  UNL1       -0.5466
     42 O          24.6009   73.8645    5.3359 O.co2   1  UNL1       -0.5466
     43 C          23.8980   74.5172    4.5789 C.2     1  UNL1        0.0799
@<TRIPOS>UNITY_ATOM_ATTR
2 1
charge -1
26 1
charge -1
41 1
charge -1
@<TRIPOS>BOND
     1     1     4    1
     2     1    24    1
     3     1     2    1
     4     1     3    2
     5    25    28    1
     6    25    24    1
     7    25    26    1
     8    25    27    2
     9     6    11    1
    10     6    12    1
    11    29    36    1
    12    29    37    1
    13     7     9    1
    14     7    13    1
    15     8    10    1
    16     8    14    1
    17     4     5    1
    18    28    36    1
    19    30    33    1
    20    30    38    1
    21    31    34    1
    22    31    39    1
    23    32    35    1
    24    32    40    1
    25    41    43   ar
    26    15    19    2
    27    42    43   ar
    28    16    22    2
    29    17    12    1
    30    17    19   ar
    31    17    20   ar
    32    18    19   ar
    33    18    22   ar
    34    18    23    1
    35     9    10    1
    36     9    11    1
    37    10    12    1
    38    11     5    1
    39    33    34    1
    40    33    35    1
    41    34    36    1
    42    35    37    1
    43    37    43    1
    44    20    21   ar
    45    21    22   ar
@<TRIPOS>MOLECULE
*****
 43 45 0 0 0
SMALL
GASTEIGER

@<TRIPOS>ATOM
      1 P          22.8217   73.5459   -4.3053 P.3     1  UNL1        0.2189
      2 O          21.8925   74.6240   -3.5352 O.co2   1  UNL1       -0.4371
      3 O          24.2221   73.4262   -3.7796 O.2     1  UNL1       -0.5170
      4 O          22.6893   73.9616   -5.8634 O.3     1  UNL1       -0.3112
      5 C          22.4192   72.9470   -6.8133 C.3     1  UNL1        0.1811
      6 O          21.0882   72.7422   -8.8043 O.3     1  UNL1       -0.3308
      7 O          21.5412   75.6817   -9.1857 O.3     1  UNL1       -0.3794
      8 O          19.0214   75.5970   -8.1468 O.3     1  UNL1       -0.3779
      9 C          21.3576   74.9451   -7.9765 C.3     1  UNL1        0.1713
     10 C          19.9057   74.5449   -7.8218 C.3     1  UNL1        0.1895
     11 C          22.0444   73.5960   -8.1394 C.3     1  UNL1        0.1764
     12 C          19.7977   73.3726   -8.7819 C.3     1  UNL1        0.2383
     13 H          21.1109   76.5478   -9.1056 H       1  UNL1        0.2105
     14 H          19.1282   76.3186   -7.5066 H       1  UNL1        0.2106
     15 O          19.0992   71.0654  -10.2535 O.2     1  UNL1       -0.2464
     16 O          16.0170   69.7559   -7.0867 O.2     1  UNL1       -0.2670
     17 N          18.8159   72.4117   -8.3652 N.ar    1  UNL1       -0.2551
     18 N          17.5640   70.4159   -8.6754 N.ar    1  UNL1       -0.2743
     19 C          18.5394   71.2871   -9.1782 C.ar    1  UNL1        0.3323
     20 C          18.1402   72.5869   -7.1636 C.ar    1  UNL1        0.0869
     21 C          17.2132   71.7478   -6.6975 C.ar    1  UNL1        0.0795
     22 C          16.8647   70.5482   -7.4867 C.ar    1  UNL1        0.2626
     23 H          17.3530   69.6268   -9.2249 H       1  UNL1        0.1734
     24 O          21.9507   72.1871   -4.2165 O.3     1  UNL1       -0.2703
     25 P          21.9489   70.9972   -3.1220 P.3     1  UNL1        0.2208
     26 O          23.4866   70.4915   -3.1229 O.co2   1  UNL1       -0.4371
     27 O          20.9422   69.9160   -3.3896 O.2     1  UNL1       -0.5170
     28 O          21.7671   71.7453   -1.7044 O.3     1  UNL1       -0.2858
     29 O          23.4439   72.9560   -0.5505 O.3     1  UNL1       -0.3226
     30 O          20.9694   71.7884    2.5450 O.3     1  UNL1       -0.3794
     31 O          21.6307   69.9251    0.3943 O.3     1  UNL1       -0.3775
     32 O          20.9162   74.5338    1.5905 O.3     1  UNL1       -0.3792
     33 C          21.2902   72.1840    1.2113 C.3     1  UNL1        0.1718
     34 C          22.2686   71.1802    0.6010 C.3     1  UNL1        0.1968
     35 C          21.9234   73.5760    1.2703 C.3     1  UNL1        0.1723
     36 C          22.8120   71.6887   -0.7350 C.3     1  UNL1        0.2706
     37 C          22.5532   73.9585   -0.0659 C.3     1  UNL1        0.1830
     38 H          20.5656   70.9064    2.5325 H       1  UNL1        0.2105
     39 H          21.2833   69.5967    1.2380 H       1  UNL1        0.2106
     40 H          20.5073   74.3017    2.4389 H       1  UNL1        0.2106
     41 O          23.1663   76.0779   -0.8620 O.co2   1  UNL1       -0.5466
     42 O          24.2978   75.2801    0.9497 O.co2   1  UNL1       -0.5466
     43 C          23.4412   75.1502    0.0880 C.2     1  UNL1        0.0799
@<TRIPOS>UNITY_ATOM_ATTR
2 1
charge -1
26 1
charge -1
41 1
charge -1
@<TRIPOS>BOND
     1     1     4    1
     2     1    24    1
     3     1     2    1
     4     1     3    2
     5    25    28    1
     6    25    24    1
     7    25    26    1
     8    25    27    2
     9     6    11    1
    10     6    12    1
    11    29    36    1
    12    29    37    1
    13     7     9    1
    14     7    13    1
    15     8    10    1
    16     8    14    1
    17     4     5    1
    18    28    36    1
    19    30    33    1
    20    30    38    1
    21    31    34    1
    22    31    39    1
    23    32    35    1
    24    32    40    1
    25    41    43   ar
    26    15    19    2
    27    42    43   ar
    28    16    22    2
    29    17    12    1
    30    17    19   ar
    31    17    20   ar
    32    18    19   ar
    33    18    22   ar
    34    18    23    1
    35     9    10    1
    36     9    11    1
    37    10    12    1
    38    11     5    1
    39    33    34    1
    40    33    35    1
    41    34    36    1
    42    35    37    1
    43    37    43    1
    44    20    21   ar
    45    21    22   ar
@<TRIPOS>MOLECULE
*****
 43 45 0 0 0
SMALL
GASTEIGER

@<TRIPOS>ATOM
      1 P          22.9800   72.0743   -2.9747 P.3     1  UNL1        0.2189
      2 O          23.4944   70.5632   -3.2409 O.co2   1  UNL1       -0.4371
      3 O          23.0236   72.5150   -1.5409 O.2     1  UNL1       -0.5170
      4 O          21.5243   72.1189   -3.6795 O.3     1  UNL1       -0.3112
      5 C          20.6845   70.9844   -3.5691 C.3     1  UNL1        0.1811
      6 O          18.8162   72.0095   -4.6812 O.3     1  UNL1       -0.3308
      7 O          17.1225   70.8715   -2.4839 O.3     1  UNL1       -0.3794
      8 O          16.6889   69.1272   -4.5347 O.3     1  UNL1       -0.3779
      9 C          18.2720   70.3128   -3.1204 C.3     1  UNL1        0.1713
     10 C          17.9170   69.8243   -4.5087 C.3     1  UNL1        0.1895
     11 C          19.2412   71.4482   -3.4203 C.3     1  UNL1        0.1764
     12 C          17.8696   71.1220   -5.2972 C.3     1  UNL1        0.2383
     13 H          16.4887   70.1649   -2.2825 H       1  UNL1        0.2105
     14 H          16.7707   68.3090   -4.0192 H       1  UNL1        0.2106
     15 O          16.0439   70.4558   -7.3465 O.2     1  UNL1       -0.2464
     16 O          19.3597   70.4465  -10.5479 O.2     1  UNL1       -0.2670
     17 N          18.2288   70.9394   -6.6750 N.ar    1  UNL1       -0.2551
     18 N          17.6973   70.4508   -8.9389 N.ar    1  UNL1       -0.2743
     19 C          17.2350   70.6057   -7.6253 C.ar    1  UNL1        0.3323
     20 C          19.5513   71.0924   -7.0731 C.ar    1  UNL1        0.0869
     21 C          19.9768   70.9416   -8.3289 C.ar    1  UNL1        0.0795
     22 C          19.0021   70.5920   -9.3830 C.ar    1  UNL1        0.2626
     23 H          17.0241   70.2163   -9.6179 H       1  UNL1        0.1734
     24 O          23.8961   72.9514   -3.9769 O.3     1  UNL1       -0.2703
     25 P          24.2402   74.5309   -3.9919 P.3     1  UNL1        0.2208
     26 O          23.4571   75.0924   -2.6912 O.co2   1  UNL1       -0.4371
     27 O          23.8863   75.2261   -5.2746 O.2     1  UNL1       -0.5170
     28 O          25.8015   74.6135   -3.5943 O.3     1  UNL1       -0.2858
     29 O          27.0738   76.1679   -2.3397 O.3     1  UNL1       -0.3226
     30 O          29.7224   75.1399   -5.3392 O.3     1  UNL1       -0.3794
     31 O          26.9032   75.6045   -5.9481 O.3     1  UNL1       -0.3775
     32 O          30.0657   74.0680   -2.6589 O.3     1  UNL1       -0.3792
     33 C          28.6565   74.9291   -4.4132 C.3     1  UNL1        0.1718
     34 C          27.5231   75.9129   -4.7049 C.3     1  UNL1        0.1968
     35 C          29.2049   75.1523   -3.0020 C.3     1  UNL1        0.1723
     36 C          26.4674   75.8749   -3.5990 C.3     1  UNL1        0.2706
     37 C          28.0807   75.2273   -1.9729 C.3     1  UNL1        0.1830
     38 H          29.3973   75.0036   -6.2431 H       1  UNL1        0.2105
     39 H          27.5673   75.6266   -6.6543 H       1  UNL1        0.2106
     40 H          30.7855   74.0092   -3.3063 H       1  UNL1        0.2106
     41 O          29.2067   74.7934    0.0385 O.co2   1  UNL1       -0.5466
     42 O          28.4627   76.9222   -0.2987 O.co2   1  UNL1       -0.5466
     43 C          28.5857   75.7659   -0.6740 C.2     1  UNL1        0.0799
@<TRIPOS>UNITY_ATOM_ATTR
2 1
charge -1
26 1
charge -1
41 1
charge -1
@<TRIPOS>BOND
     1     1     4    1
     2     1    24    1
     3     1     2    1
     4     1     3    2
     5    25    28    1
     6    25    24    1
     7    25    26    1
     8    25    27    2
     9     6    11    1
    10     6    12    1
    11    29    36    1
    12    29    37    1
    13     7     9    1
    14     7    13    1
    15     8    10    1
    16     8    14    1
    17     4     5    1
    18    28    36    1
    19    30    33    1
    20    30    38    1
    21    31    34    1
    22    31    39    1
    23    32    35    1
    24    32    40    1
    25    41    43   ar
    26    15    19    2
    27    42    43   ar
    28    16    22    2
    29    17    12    1
    30    17    19   ar
    31    17    20   ar
    32    18    19   ar
    33    18    22   ar
    34    18    23    1
    35     9    10    1
    36     9    11    1
    37    10    12    1
    38    11     5    1
    39    33    34    1
    40    33    35    1
    41    34    36    1
    42    35    37    1
    43    37    43    1
    44    20    21   ar
    45    21    22   ar
@<TRIPOS>MOLECULE
*****
 43 45 0 0 0
SMALL
GASTEIGER

@<TRIPOS>ATOM
      1 P          22.1579   70.8858   -1.5095 P.3     1  UNL1        0.2189
      2 O          23.5898   70.5805   -2.1988 O.co2   1  UNL1       -0.4371
      3 O          21.3693   69.6694   -1.1217 O.2     1  UNL1       -0.5170
      4 O          21.4326   71.8913   -2.5491 O.3     1  UNL1       -0.3112
      5 C          20.7014   71.3371   -3.6274 C.3     1  UNL1        0.1811
      6 O          18.7520   72.1858   -4.7486 O.3     1  UNL1       -0.3308
      7 O          17.1712   71.0298   -2.4779 O.3     1  UNL1       -0.3794
      8 O          16.8284   69.1753   -4.4475 O.3     1  UNL1       -0.3779
      9 C          18.3470   70.5237   -3.1103 C.3     1  UNL1        0.1713
     10 C          18.0063   69.9541   -4.4711 C.3     1  UNL1        0.1895
     11 C          19.2321   71.7082   -3.4732 C.3     1  UNL1        0.1764
     12 C          17.8594   71.2112   -5.3114 C.3     1  UNL1        0.2383
     13 H          16.5899   70.2911   -2.2367 H       1  UNL1        0.2105
     14 H          16.9731   68.3869   -3.9002 H       1  UNL1        0.2106
     15 O          16.0484   70.3630   -7.3057 O.2     1  UNL1       -0.2464
     16 O          19.3176   70.4156  -10.5543 O.2     1  UNL1       -0.2670
     17 N          18.2106   70.9954   -6.6865 N.ar    1  UNL1       -0.2551
     18 N          17.6786   70.3891   -8.9215 N.ar    1  UNL1       -0.2743
     19 C          17.2253   70.5690   -7.6081 C.ar    1  UNL1        0.3323
     20 C          19.5170   71.2072   -7.1101 C.ar    1  UNL1        0.0869
     21 C          19.9340   71.0316   -8.3655 C.ar    1  UNL1        0.0795
     22 C          18.9673   70.5863   -9.3905 C.ar    1  UNL1        0.2626
     23 H          17.0111   70.0905   -9.5808 H       1  UNL1        0.1734
     24 O          22.5479   71.8564   -0.2772 O.3     1  UNL1       -0.2703
     25 P          21.9271   73.2720    0.1966 P.3     1  UNL1        0.2208
     26 O          20.3428   73.0933   -0.0834 O.co2   1  UNL1       -0.4371
     27 O          22.5420   74.4682   -0.4705 O.2     1  UNL1       -0.5170
     28 O          22.0604   73.2598    1.8042 O.3     1  UNL1       -0.2858
     29 O          20.9713   75.1779    2.6668 O.3     1  UNL1       -0.3226
     30 O          22.4136   73.4099    6.1110 O.3     1  UNL1       -0.3794
     31 O          24.0693   73.5389    3.7075 O.3     1  UNL1       -0.3775
     32 O          19.5904   73.2187    5.4448 O.3     1  UNL1       -0.3792
     33 C          21.8958   73.4418    4.7810 C.3     1  UNL1        0.1718
     34 C          22.8422   74.2379    3.8822 C.3     1  UNL1        0.1968
     35 C          20.5185   74.1074    4.8257 C.3     1  UNL1        0.1723
     36 C          22.2127   74.4893    2.5113 C.3     1  UNL1        0.2706
     37 C          20.0148   74.4399    3.4241 C.3     1  UNL1        0.1830
     38 H          23.2888   72.9910    6.1074 H       1  UNL1        0.2105
     39 H          24.4741   73.3758    4.5735 H       1  UNL1        0.2106
     40 H          19.8994   72.9991    6.3376 H       1  UNL1        0.2106
     41 O          19.2148   76.6249    3.1288 O.co2   1  UNL1       -0.5466
     42 O          17.7132   75.0510    3.8124 O.co2   1  UNL1       -0.5466
     43 C          18.8470   75.3697    3.4869 C.2     1  UNL1        0.0799
@<TRIPOS>UNITY_ATOM_ATTR
2 1
charge -1
26 1
charge -1
41 1
charge -1
@<TRIPOS>BOND
     1     1     4    1
     2     1    24    1
     3     1     2    1
     4     1     3    2
     5    25    28    1
     6    25    24    1
     7    25    26    1
     8    25    27    2
     9     6    11    1
    10     6    12    1
    11    29    36    1
    12    29    37    1
    13     7     9    1
    14     7    13    1
    15     8    10    1
    16     8    14    1
    17     4     5    1
    18    28    36    1
    19    30    33    1
    20    30    38    1
    21    31    34    1
    22    31    39    1
    23    32    35    1
    24    32    40    1
    25    41    43   ar
    26    15    19    2
    27    42    43   ar
    28    16    22    2
    29    17    12    1
    30    17    19   ar
    31    17    20   ar
    32    18    19   ar
    33    18    22   ar
    34    18    23    1
    35     9    10    1
    36     9    11    1
    37    10    12    1
    38    11     5    1
    39    33    34    1
    40    33    35    1
    41    34    36    1
    42    35    37    1
    43    37    43    1
    44    20    21   ar
    45    21    22   ar
@<TRIPOS>MOLECULE
*****
 43 45 0 0 0
SMALL
GASTEIGER

@<TRIPOS>ATOM
      1 P          21.8222   74.8470   -7.2153 P.3     1  UNL1        0.2189
      2 O          20.9208   76.1488   -7.5496 O.co2   1  UNL1       -0.4371
      3 O          23.2752   75.1290   -6.9681 O.2     1  UNL1       -0.5170
      4 O          21.5009   73.8292   -8.4314 O.3     1  UNL1       -0.3112
      5 C          21.3281   72.4555   -8.1356 C.3     1  UNL1        0.1811
      6 O          19.6789   70.7201   -8.3503 O.3     1  UNL1       -0.3308
      7 O          18.3205   72.5131  -10.3330 O.3     1  UNL1       -0.3794
      8 O          16.8390   72.8911   -8.0751 O.3     1  UNL1       -0.3779
      9 C          19.0249   72.8556   -9.1393 C.3     1  UNL1        0.1713
     10 C          18.1914   72.5139   -7.9225 C.3     1  UNL1        0.1895
     11 C          20.2019   71.9001   -8.9978 C.3     1  UNL1        0.1764
     12 C          18.3716   71.0083   -7.8294 C.3     1  UNL1        0.2383
     13 H          17.5638   73.1102  -10.4449 H       1  UNL1        0.2105
     14 H          16.7772   73.8581   -8.1293 H       1  UNL1        0.2106
     15 O          16.1072   69.7356   -6.7208 O.2     1  UNL1       -0.2464
     16 O          18.1752   69.2114   -2.6352 O.2     1  UNL1       -0.2670
     17 N          18.2912   70.5292   -6.4786 N.ar    1  UNL1       -0.2551
     18 N          17.1389   69.4767   -4.6867 N.ar    1  UNL1       -0.2743
     19 C          17.1072   69.9043   -6.0206 C.ar    1  UNL1        0.3323
     20 C          19.3767   70.6786   -5.6239 C.ar    1  UNL1        0.0869
     21 C          19.3920   70.2658   -4.3550 C.ar    1  UNL1        0.0795
     22 C          18.1943   69.6035   -3.7980 C.ar    1  UNL1        0.2626
     23 H          16.3253   69.0405   -4.3446 H       1  UNL1        0.1734
     24 O          21.0442   74.1780   -5.9663 O.3     1  UNL1       -0.2703
     25 P          20.6222   74.7868   -4.5293 P.3     1  UNL1        0.2208
     26 O          19.0052   74.8152   -4.6001 O.co2   1  UNL1       -0.4371
     27 O          21.2507   76.1132   -4.2139 O.2     1  UNL1       -0.5170
     28 O          20.9630   73.6163   -3.4728 O.3     1  UNL1       -0.2858
     29 O          21.9152   73.4491   -1.3108 O.3     1  UNL1       -0.3226
     30 O          23.7942   70.3530   -3.2986 O.3     1  UNL1       -0.3794
     31 O          23.4094   72.9361   -4.6078 O.3     1  UNL1       -0.3775
     32 O          21.6543   69.7907   -1.4129 O.3     1  UNL1       -0.3792
     33 C          22.7264   71.2523   -3.0003 C.3     1  UNL1        0.1718
     34 C          23.1919   72.6914   -3.2231 C.3     1  UNL1        0.1968
     35 C          22.3262   71.0427   -1.5381 C.3     1  UNL1        0.1723
     36 C          22.1582   73.6884   -2.6976 C.3     1  UNL1        0.2706
     37 C          21.3929   72.1478   -1.0521 C.3     1  UNL1        0.1830
     38 H          24.0654   70.4682   -4.2230 H       1  UNL1        0.2105
     39 H          24.0642   72.3068   -4.9480 H       1  UNL1        0.2106
     40 H          22.2375   69.0788   -1.7192 H       1  UNL1        0.2106
     41 O          21.0301   73.3689    0.9174 O.co2   1  UNL1       -0.5466
     42 O          21.3762   71.1255    1.1333 O.co2   1  UNL1       -0.5466
     43 C          21.2732   72.1243    0.4370 C.2     1  UNL1        0.0799
@<TRIPOS>UNITY_ATOM_ATTR
2 1
charge -1
26 1
charge -1
41 1
charge -1
@<TRIPOS>BOND
     1     1     4    1
     2     1    24    1
     3     1     2    1
     4     1     3    2
     5    25    28    1
     6    25    24    1
     7    25    26    1
     8    25    27    2
     9     6    11    1
    10     6    12    1
    11    29    36    1
    12    29    37    1
    13     7     9    1
    14     7    13    1
    15     8    10    1
    16     8    14    1
    17     4     5    1
    18    28    36    1
    19    30    33    1
    20    30    38    1
    21    31    34    1
    22    31    39    1
    23    32    35    1
    24    32    40    1
    25    41    43   ar
    26    15    19    2
    27    42    43   ar
    28    16    22    2
    29    17    12    1
    30    17    19   ar
    31    17    20   ar
    32    18    19   ar
    33    18    22   ar
    34    18    23    1
    35     9    10    1
    36     9    11    1
    37    10    12    1
    38    11     5    1
    39    33    34    1
    40    33    35    1
    41    34    36    1
    42    35    37    1
    43    37    43    1
    44    20    21   ar
    45    21    22   ar
@<TRIPOS>MOLECULE
*****
 43 45 0 0 0
SMALL
GASTEIGER

@<TRIPOS>ATOM
      1 P          22.0327   73.5514   -5.3896 P.3     1  UNL1        0.2189
      2 O          22.0034   75.1248   -5.7671 O.co2   1  UNL1       -0.4371
      3 O          23.3697   73.0300   -4.9509 O.2     1  UNL1       -0.5170
      4 O          21.3876   72.8288   -6.6856 O.3     1  UNL1       -0.3112
      5 C          20.5663   73.5946   -7.5479 C.3     1  UNL1        0.1811
      6 O          19.8374   71.3503   -8.0052 O.3     1  UNL1       -0.3308
      7 O          18.2304   72.5274  -10.2465 O.3     1  UNL1       -0.3794
      8 O          16.3569   72.1588   -8.2996 O.3     1  UNL1       -0.3779
      9 C          18.5138   73.0691   -8.9562 C.3     1  UNL1        0.1713
     10 C          17.6961   72.3588   -7.8984 C.3     1  UNL1        0.1895
     11 C          19.9347   72.6708   -8.5813 C.3     1  UNL1        0.1764
     12 C          18.4581   71.0549   -7.7335 C.3     1  UNL1        0.2383
     13 H          17.3275   72.7687  -10.5076 H       1  UNL1        0.2105
     14 H          15.9148   73.0180   -8.3904 H       1  UNL1        0.2106
     15 O          16.1472   69.7962   -6.7080 O.2     1  UNL1       -0.2464
     16 O          18.1484   69.0401   -2.6254 O.2     1  UNL1       -0.2670
     17 N          18.3480   70.5200   -6.4059 N.ar    1  UNL1       -0.2551
     18 N          17.1458   69.4217   -4.6753 N.ar    1  UNL1       -0.2743
     19 C          17.1423   69.9075   -5.9895 C.ar    1  UNL1        0.3323
     20 C          19.4259   70.6031   -5.5329 C.ar    1  UNL1        0.0869
     21 C          19.4142   70.1353   -4.2832 C.ar    1  UNL1        0.0795
     22 C          18.1926   69.4817   -3.7697 C.ar    1  UNL1        0.2626
     23 H          16.3167   68.9929   -4.3621 H       1  UNL1        0.1734
     24 O          20.8629   73.4221   -4.2816 O.3     1  UNL1       -0.2703
     25 P          20.7797   73.9578   -2.7585 P.3     1  UNL1        0.2208
     26 O          19.1991   74.2382   -2.5509 O.co2   1  UNL1       -0.4371
     27 O          21.6603   75.1396   -2.4724 O.2     1  UNL1       -0.5170
     28 O          21.0856   72.6596   -1.8509 O.3     1  UNL1       -0.2858
     29 O          22.9159   73.1961   -0.4468 O.3     1  UNL1       -0.3226
     30 O          22.0669   69.3252    0.7209 O.3     1  UNL1       -0.3794
     31 O          22.0382   70.0591   -2.1067 O.3     1  UNL1       -0.3775
     32 O          21.2849   71.5620    2.4049 O.3     1  UNL1       -0.3792
     33 C          21.7706   70.6345    0.2350 C.3     1  UNL1        0.1718
     34 C          22.5399   70.8851   -1.0623 C.3     1  UNL1        0.1968
     35 C          22.1912   71.6429    1.3064 C.3     1  UNL1        0.1723
     36 C          22.4301   72.3495   -1.4893 C.3     1  UNL1        0.2706
     37 C          22.1757   73.0696    0.7654 C.3     1  UNL1        0.1830
     38 H          21.8081   68.6673    0.0564 H       1  UNL1        0.2105
     39 H          22.1046   69.1284   -1.8424 H       1  UNL1        0.2106
     40 H          21.2852   70.6588    2.7585 H       1  UNL1        0.2106
     41 O          23.7771   74.7654    1.0132 O.co2   1  UNL1       -0.5466
     42 O          22.7071   74.0616    2.8996 O.co2   1  UNL1       -0.5466
     43 C          22.8909   73.9967    1.6934 C.2     1  UNL1        0.0799
@<TRIPOS>UNITY_ATOM_ATTR
2 1
charge -1
26 1
charge -1
41 1
charge -1
@<TRIPOS>BOND
     1     1     4    1
     2     1    24    1
     3     1     2    1
     4     1     3    2
     5    25    28    1
     6    25    24    1
     7    25    26    1
     8    25    27    2
     9     6    11    1
    10     6    12    1
    11    29    36    1
    12    29    37    1
    13     7     9    1
    14     7    13    1
    15     8    10    1
    16     8    14    1
    17     4     5    1
    18    28    36    1
    19    30    33    1
    20    30    38    1
    21    31    34    1
    22    31    39    1
    23    32    35    1
    24    32    40    1
    25    41    43   ar
    26    15    19    2
    27    42    43   ar
    28    16    22    2
    29    17    12    1
    30    17    19   ar
    31    17    20   ar
    32    18    19   ar
    33    18    22   ar
    34    18    23    1
    35     9    10    1
    36     9    11    1
    37    10    12    1
    38    11     5    1
    39    33    34    1
    40    33    35    1
    41    34    36    1
    42    35    37    1
    43    37    43    1
    44    20    21   ar
    45    21    22   ar
@<TRIPOS>MOLECULE
*****
 43 45 0 0 0
SMALL
GASTEIGER

@<TRIPOS>ATOM
      1 P          22.3651   72.6055   -4.3880 P.3     1  UNL1        0.2189
      2 O          22.9977   73.2367   -5.7371 O.co2   1  UNL1       -0.4371
      3 O          23.3150   71.7834   -3.5672 O.2     1  UNL1       -0.5170
      4 O          21.0369   71.8387   -4.9035 O.3     1  UNL1       -0.3112
      5 C          20.3861   72.3202   -6.0650 C.3     1  UNL1        0.1811
      6 O          18.3873   71.2422   -6.8527 O.3     1  UNL1       -0.3308
      7 O          20.1573   69.7869   -8.7868 O.3     1  UNL1       -0.3794
      8 O          19.0616   71.7436  -10.3381 O.3     1  UNL1       -0.3779
      9 C          20.2520   71.1290   -8.3090 C.3     1  UNL1        0.1713
     10 C          19.1872   71.9911   -8.9534 C.3     1  UNL1        0.1895
     11 C          19.8276   71.1382   -6.8468 C.3     1  UNL1        0.1764
     12 C          17.9455   71.5943   -8.1734 C.3     1  UNL1        0.2383
     13 H          20.4236   69.7558   -9.7194 H       1  UNL1        0.2105
     14 H          19.8772   72.0131  -10.7900 H       1  UNL1        0.2106
     15 O          15.9092   71.7470   -6.2223 O.2     1  UNL1       -0.2464
     16 O          14.3489   75.7461   -7.9006 O.2     1  UNL1       -0.2670
     17 N          16.9933   72.6644   -8.0774 N.ar    1  UNL1       -0.2551
     18 N          15.1334   73.7381   -7.0607 N.ar    1  UNL1       -0.2743
     19 C          16.0102   72.6454   -7.0599 C.ar    1  UNL1        0.3323
     20 C          17.0400   73.7175   -8.9828 C.ar    1  UNL1        0.0869
     21 C          16.1974   74.7522   -8.9708 C.ar    1  UNL1        0.0795
     22 C          15.1398   74.8085   -7.9403 C.ar    1  UNL1        0.2626
     23 H          14.4389   73.7460   -6.3628 H       1  UNL1        0.1734
     24 O          21.7654   73.9001   -3.6282 O.3     1  UNL1       -0.2703
     25 P          22.4256   74.8876   -2.5315 P.3     1  UNL1        0.2208
     26 O          21.3326   76.0740   -2.3966 O.co2   1  UNL1       -0.4371
     27 O          23.8085   75.3574   -2.8792 O.2     1  UNL1       -0.5170
     28 O          22.3234   74.0795   -1.1390 O.3     1  UNL1       -0.2858
     29 O          21.4551   71.9173   -0.7147 O.3     1  UNL1       -0.3226
     30 O          20.6208   73.8688    2.8298 O.3     1  UNL1       -0.3794
     31 O          20.2073   75.2104    0.2678 O.3     1  UNL1       -0.3775
     32 O          22.8193   71.9720    2.6909 O.3     1  UNL1       -0.3792
     33 C          21.3619   73.5800    1.6444 C.3     1  UNL1        0.1718
     34 C          20.4811   73.8222    0.4184 C.3     1  UNL1        0.1968
     35 C          21.7986   72.1145    1.7049 C.3     1  UNL1        0.1723
     36 C          21.1587   73.3075   -0.8524 C.3     1  UNL1        0.2706
     37 C          22.3478   71.6410    0.3623 C.3     1  UNL1        0.1830
     38 H          20.3327   74.7951    2.8136 H       1  UNL1        0.2105
     39 H          19.7776   75.5437    1.0707 H       1  UNL1        0.2106
     40 H          22.4827   72.2702    3.5503 H       1  UNL1        0.2106
     41 O          23.7308   69.7735    0.0441 O.co2   1  UNL1       -0.5466
     42 O          21.5406   69.3739    0.5363 O.co2   1  UNL1       -0.5466
     43 C          22.4604   70.1515    0.3308 C.2     1  UNL1        0.0799
@<TRIPOS>UNITY_ATOM_ATTR
2 1
charge -1
26 1
charge -1
41 1
charge -1
@<TRIPOS>BOND
     1     1     4    1
     2     1    24    1
     3     1     2    1
     4     1     3    2
     5    25    28    1
     6    25    24    1
     7    25    26    1
     8    25    27    2
     9     6    11    1
    10     6    12    1
    11    29    36    1
    12    29    37    1
    13     7     9    1
    14     7    13    1
    15     8    10    1
    16     8    14    1
    17     4     5    1
    18    28    36    1
    19    30    33    1
    20    30    38    1
    21    31    34    1
    22    31    39    1
    23    32    35    1
    24    32    40    1
    25    41    43   ar
    26    15    19    2
    27    42    43   ar
    28    16    22    2
    29    17    12    1
    30    17    19   ar
    31    17    20   ar
    32    18    19   ar
    33    18    22   ar
    34    18    23    1
    35     9    10    1
    36     9    11    1
    37    10    12    1
    38    11     5    1
    39    33    34    1
    40    33    35    1
    41    34    36    1
    42    35    37    1
    43    37    43    1
    44    20    21   ar
    45    21    22   ar
@<TRIPOS>MOLECULE
*****
 43 45 0 0 0
SMALL
GASTEIGER

@<TRIPOS>ATOM
      1 P          23.1747   73.4295   -3.6511 P.3     1  UNL1        0.2189
      2 O          24.2667   74.3456   -4.4175 O.co2   1  UNL1       -0.4371
      3 O          23.6627   72.0706   -3.2424 O.2     1  UNL1       -0.5170
      4 O          21.8916   73.4482   -4.6366 O.3     1  UNL1       -0.3112
      5 C          22.0064   74.1085   -5.8837 C.3     1  UNL1        0.1811
      6 O          20.8808   72.1068   -6.5936 O.3     1  UNL1       -0.3308
      7 O          21.7438   72.8298   -9.3728 O.3     1  UNL1       -0.3794
      8 O          19.1372   73.6299   -9.3311 O.3     1  UNL1       -0.3779
      9 C          21.3394   73.6827   -8.3016 C.3     1  UNL1        0.1713
     10 C          19.8400   73.6040   -8.1064 C.3     1  UNL1        0.1895
     11 C          21.8616   73.0848   -7.0023 C.3     1  UNL1        0.1764
     12 C          19.6865   72.2831   -7.3719 C.3     1  UNL1        0.2383
     13 H          21.4215   73.1913  -10.2137 H       1  UNL1        0.2105
     14 H          19.2663   74.4910   -9.7598 H       1  UNL1        0.2106
     15 O          17.0619   71.6059   -8.1654 O.2     1  UNL1       -0.2464
     16 O          15.4076   72.2802   -3.9165 O.2     1  UNL1       -0.2670
     17 N          18.5511   72.2734   -6.4934 N.ar    1  UNL1       -0.2551
     18 N          16.2403   71.9434   -6.0487 N.ar    1  UNL1       -0.2743
     19 C          17.2756   71.9182   -6.9924 C.ar    1  UNL1        0.3323
     20 C          18.7071   72.6112   -5.1546 C.ar    1  UNL1        0.0869
     21 C          17.7108   72.6305   -4.2670 C.ar    1  UNL1        0.0795
     22 C          16.3463   72.2731   -4.7072 C.ar    1  UNL1        0.2626
     23 H          15.3427   71.7018   -6.3731 H       1  UNL1        0.1734
     24 O          22.7054   74.3732   -2.4256 O.3     1  UNL1       -0.2703
     25 P          23.5275   74.9617   -1.1640 P.3     1  UNL1        0.2208
     26 O          22.6635   76.2611   -0.7332 O.co2   1  UNL1       -0.4371
     27 O          24.9732   75.2476   -1.4503 O.2     1  UNL1       -0.5170
     28 O          23.2777   73.8956    0.0206 O.3     1  UNL1       -0.2858
     29 O          21.7100   72.1523   -0.3152 O.3     1  UNL1       -0.3226
     30 O          22.1885   72.0739    3.7876 O.3     1  UNL1       -0.3794
     31 O          21.9764   74.6194    2.3699 O.3     1  UNL1       -0.3775
     32 O          23.4439   70.0399    2.1330 O.3     1  UNL1       -0.3792
     33 C          22.5904   72.2730    2.4324 C.3     1  UNL1        0.1718
     34 C          21.7116   73.3470    1.7905 C.3     1  UNL1        0.1968
     35 C          22.4320   70.9432    1.6919 C.3     1  UNL1        0.1723
     36 C          21.9567   73.4254    0.2830 C.3     1  UNL1        0.2706
     37 C          22.5659   71.1264    0.1829 C.3     1  UNL1        0.1830
     38 H          22.2805   72.9060    4.2780 H       1  UNL1        0.2105
     39 H          21.8232   74.5768    3.3265 H       1  UNL1        0.2106
     40 H          23.3698   69.9147    3.0920 H       1  UNL1        0.2106
     41 O          22.3056   68.7954    0.1975 O.co2   1  UNL1       -0.5466
     42 O          21.5744   69.9121   -1.6512 O.co2   1  UNL1       -0.5466
     43 C          22.0900   69.9106   -0.5434 C.2     1  UNL1        0.0799
@<TRIPOS>UNITY_ATOM_ATTR
2 1
charge -1
26 1
charge -1
41 1
charge -1
@<TRIPOS>BOND
     1     1     4    1
     2     1    24    1
     3     1     2    1
     4     1     3    2
     5    25    28    1
     6    25    24    1
     7    25    26    1
     8    25    27    2
     9     6    11    1
    10     6    12    1
    11    29    36    1
    12    29    37    1
    13     7     9    1
    14     7    13    1
    15     8    10    1
    16     8    14    1
    17     4     5    1
    18    28    36    1
    19    30    33    1
    20    30    38    1
    21    31    34    1
    22    31    39    1
    23    32    35    1
    24    32    40    1
    25    41    43   ar
    26    15    19    2
    27    42    43   ar
    28    16    22    2
    29    17    12    1
    30    17    19   ar
    31    17    20   ar
    32    18    19   ar
    33    18    22   ar
    34    18    23    1
    35     9    10    1
    36     9    11    1
    37    10    12    1
    38    11     5    1
    39    33    34    1
    40    33    35    1
    41    34    36    1
    42    35    37    1
    43    37    43    1
    44    20    21   ar
    45    21    22   ar
@<TRIPOS>MOLECULE
*****
 43 45 0 0 0
SMALL
GASTEIGER

@<TRIPOS>ATOM
      1 P          23.3170   73.0491   -3.9400 P.3     1  UNL1        0.2189
      2 O          24.7356   73.8087   -3.7686 O.co2   1  UNL1       -0.4371
      3 O          23.3112   71.6125   -3.5063 O.2     1  UNL1       -0.5170
      4 O          22.9161   73.3184   -5.4842 O.3     1  UNL1       -0.3112
      5 C          22.0289   74.3823   -5.7767 C.3     1  UNL1        0.1811
      6 O          21.3550   73.5550   -7.9305 O.3     1  UNL1       -0.3308
      7 O          21.8105   76.3426   -8.9370 O.3     1  UNL1       -0.3794
      8 O          19.0998   76.2459   -8.6565 O.3     1  UNL1       -0.3779
      9 C          21.2994   75.9093   -7.6763 C.3     1  UNL1        0.1713
     10 C          19.8798   75.4063   -7.8311 C.3     1  UNL1        0.1895
     11 C          22.0444   74.6428   -7.2774 C.3     1  UNL1        0.1764
     12 C          20.0972   74.0298   -8.4362 C.3     1  UNL1        0.2383
     13 H          21.3495   77.1507   -9.2128 H       1  UNL1        0.2105
     14 H          18.9899   77.1095   -8.2274 H       1  UNL1        0.2106
     15 O          17.6091   73.8075   -9.7540 O.2     1  UNL1       -0.2464
     16 O          16.2159   70.4306   -6.9434 O.2     1  UNL1       -0.2670
     17 N          19.0658   73.1010   -8.0696 N.ar    1  UNL1       -0.2551
     18 N          16.9172   72.1265   -8.3522 N.ar    1  UNL1       -0.2743
     19 C          17.8525   73.0703   -8.7968 C.ar    1  UNL1        0.3323
     20 C          19.2618   72.2327   -7.0025 C.ar    1  UNL1        0.0869
     21 C          18.3610   71.3385   -6.5906 C.ar    1  UNL1        0.0795
     22 C          17.0662   71.2423   -7.2960 C.ar    1  UNL1        0.2626
     23 H          16.0638   72.0879   -8.8417 H       1  UNL1        0.1734
     24 O          22.2947   74.0018   -3.1276 O.3     1  UNL1       -0.2703
     25 P          22.3884   74.6386   -1.6446 P.3     1  UNL1        0.2208
     26 O          20.9249   75.2968   -1.4315 O.co2   1  UNL1       -0.4371
     27 O          23.5300   75.5952   -1.4561 O.2     1  UNL1       -0.5170
     28 O          22.4107   73.3660   -0.6534 O.3     1  UNL1       -0.2858
     29 O          20.1751   72.6716   -1.0125 O.3     1  UNL1       -0.3226
     30 O          21.8549   69.2770    0.6377 O.3     1  UNL1       -0.3794
     31 O          22.4845   71.9167    1.7194 O.3     1  UNL1       -0.3775
     32 O          21.3209   69.4008   -2.2172 O.3     1  UNL1       -0.3792
     33 C          21.8369   70.4824   -0.1270 C.3     1  UNL1        0.1718
     34 C          21.4525   71.6552    0.7753 C.3     1  UNL1        0.1968
     35 C          20.8099   70.3152   -1.2491 C.3     1  UNL1        0.1723
     36 C          21.1989   72.9188   -0.0481 C.3     1  UNL1        0.2706
     37 C          20.5182   71.6443   -1.9399 C.3     1  UNL1        0.1830
     38 H          22.5007   69.3599    1.3570 H       1  UNL1        0.2105
     39 H          22.6508   71.1191    2.2452 H       1  UNL1        0.2106
     40 H          21.5108   68.5507   -1.7904 H       1  UNL1        0.2106
     41 O          19.0233   72.7314   -3.3839 O.co2   1  UNL1       -0.5466
     42 O          18.6307   70.5282   -2.9466 O.co2   1  UNL1       -0.5466
     43 C          19.2964   71.5414   -2.7937 C.2     1  UNL1        0.0799
@<TRIPOS>UNITY_ATOM_ATTR
2 1
charge -1
26 1
charge -1
41 1
charge -1
@<TRIPOS>BOND
     1     1     4    1
     2     1    24    1
     3     1     2    1
     4     1     3    2
     5    25    28    1
     6    25    24    1
     7    25    26    1
     8    25    27    2
     9     6    11    1
    10     6    12    1
    11    29    36    1
    12    29    37    1
    13     7     9    1
    14     7    13    1
    15     8    10    1
    16     8    14    1
    17     4     5    1
    18    28    36    1
    19    30    33    1
    20    30    38    1
    21    31    34    1
    22    31    39    1
    23    32    35    1
    24    32    40    1
    25    41    43   ar
    26    15    19    2
    27    42    43   ar
    28    16    22    2
    29    17    12    1
    30    17    19   ar
    31    17    20   ar
    32    18    19   ar
    33    18    22   ar
    34    18    23    1
    35     9    10    1
    36     9    11    1
    37    10    12    1
    38    11     5    1
    39    33    34    1
    40    33    35    1
    41    34    36    1
    42    35    37    1
    43    37    43    1
    44    20    21   ar
    45    21    22   ar
@<TRIPOS>MOLECULE
*****
 43 45 0 0 0
SMALL
GASTEIGER

@<TRIPOS>ATOM
      1 P          22.5283   72.0397   -3.4293 P.3     1  UNL1        0.2189
      2 O          23.7248   72.8627   -4.1435 O.co2   1  UNL1       -0.4371
      3 O          22.8065   70.5819   -3.2075 O.2     1  UNL1       -0.5170
      4 O          21.2302   72.3777   -4.3341 O.3     1  UNL1       -0.3112
      5 C          20.4159   71.3066   -4.7748 C.3     1  UNL1        0.1811
      6 O          18.2188   71.9946   -4.0841 O.3     1  UNL1       -0.3308
      7 O          18.0916   69.4136   -2.5630 O.3     1  UNL1       -0.3794
      8 O          16.6246   68.8628   -4.7948 O.3     1  UNL1       -0.3779
      9 C          18.6965   69.6889   -3.8266 C.3     1  UNL1        0.1713
     10 C          17.6337   69.8460   -4.8934 C.3     1  UNL1        0.1895
     11 C          19.2960   71.0871   -3.7658 C.3     1  UNL1        0.1764
     12 C          17.1143   71.2467   -4.6172 C.3     1  UNL1        0.2383
     13 H          17.7014   68.5252   -2.5776 H       1  UNL1        0.2105
     14 H          17.0053   67.9893   -4.9793 H       1  UNL1        0.2106
     15 O          17.8628   70.5237   -7.2428 O.2     1  UNL1       -0.2464
     16 O          15.2266   73.8183   -9.0972 O.2     1  UNL1       -0.2670
     17 N          16.6385   71.8987   -5.8044 N.ar    1  UNL1       -0.2551
     18 N          16.5499   72.1659   -8.1638 N.ar    1  UNL1       -0.2743
     19 C          17.0766   71.4579   -7.0756 C.ar    1  UNL1        0.3323
     20 C          15.7475   72.9602   -5.7030 C.ar    1  UNL1        0.0869
     21 C          15.2541   73.6252   -6.7495 C.ar    1  UNL1        0.0795
     22 C          15.6619   73.2283   -8.1131 C.ar    1  UNL1        0.2626
     23 H          16.8419   71.8786   -9.0591 H       1  UNL1        0.1734
     24 O          22.2606   72.8871   -2.0790 O.3     1  UNL1       -0.2703
     25 P          20.9271   73.0608   -1.1817 P.3     1  UNL1        0.2208
     26 O          20.4566   71.5343   -0.9193 O.co2   1  UNL1       -0.4371
     27 O          19.8758   73.9337   -1.8035 O.2     1  UNL1       -0.5170
     28 O          21.4619   73.5740    0.2511 O.3     1  UNL1       -0.2858
     29 O          23.5966   74.1391    1.1071 O.3     1  UNL1       -0.3226
     30 O          21.8856   72.1996    4.3287 O.3     1  UNL1       -0.3794
     31 O          21.5477   71.1551    1.6214 O.3     1  UNL1       -0.3775
     32 O          22.1190   75.0972    4.3259 O.3     1  UNL1       -0.3792
     33 C          21.9001   73.0055    3.1505 C.3     1  UNL1        0.1718
     34 C          22.4539   72.1917    1.9806 C.3     1  UNL1        0.1968
     35 C          22.7886   74.2219    3.4205 C.3     1  UNL1        0.1723
     36 C          22.6997   73.0827    0.7622 C.3     1  UNL1        0.2706
     37 C          23.0907   74.9874    2.1354 C.3     1  UNL1        0.1830
     38 H          21.3270   71.4202    4.1807 H       1  UNL1        0.2105
     39 H          21.3870   70.5861    2.3900 H       1  UNL1        0.2106
     40 H          21.9209   74.6221    5.1481 H       1  UNL1        0.2106
     41 O          25.3875   75.4260    1.9519 O.co2   1  UNL1       -0.5466
     42 O          24.0772   77.0838    2.8087 O.co2   1  UNL1       -0.5466
     43 C          24.2051   75.9598    2.3468 C.2     1  UNL1        0.0799
@<TRIPOS>UNITY_ATOM_ATTR
2 1
charge -1
26 1
charge -1
41 1
charge -1
@<TRIPOS>BOND
     1     1     4    1
     2     1    24    1
     3     1     2    1
     4     1     3    2
     5    25    28    1
     6    25    24    1
     7    25    26    1
     8    25    27    2
     9     6    11    1
    10     6    12    1
    11    29    36    1
    12    29    37    1
    13     7     9    1
    14     7    13    1
    15     8    10    1
    16     8    14    1
    17     4     5    1
    18    28    36    1
    19    30    33    1
    20    30    38    1
    21    31    34    1
    22    31    39    1
    23    32    35    1
    24    32    40    1
    25    41    43   ar
    26    15    19    2
    27    42    43   ar
    28    16    22    2
    29    17    12    1
    30    17    19   ar
    31    17    20   ar
    32    18    19   ar
    33    18    22   ar
    34    18    23    1
    35     9    10    1
    36     9    11    1
    37    10    12    1
    38    11     5    1
    39    33    34    1
    40    33    35    1
    41    34    36    1
    42    35    37    1
    43    37    43    1
    44    20    21   ar
    45    21    22   ar
@<TRIPOS>MOLECULE
*****
 43 45 0 0 0
SMALL
GASTEIGER

@<TRIPOS>ATOM
      1 P          22.0648   70.2264   -0.3032 P.3     1  UNL1        0.2189
      2 O          22.9752   70.6934   -1.5569 O.co2   1  UNL1       -0.4371
      3 O          22.4194   68.8870    0.2732 O.2     1  UNL1       -0.5170
      4 O          20.5482   70.3783   -0.8463 O.3     1  UNL1       -0.3112
      5 C          20.3139   70.2644   -2.2379 C.3     1  UNL1        0.1811
      6 O          19.2485   72.1315   -3.3133 O.3     1  UNL1       -0.3308
      7 O          16.7442   70.4826   -3.2812 O.3     1  UNL1       -0.3794
      8 O          17.6131   70.1964   -5.8500 O.3     1  UNL1       -0.3779
      9 C          18.0971   70.0675   -3.4707 C.3     1  UNL1        0.1713
     10 C          18.5771   70.4597   -4.8520 C.3     1  UNL1        0.1895
     11 C          18.9809   70.9216   -2.5719 C.3     1  UNL1        0.1764
     12 C          18.8513   71.9441   -4.6810 C.3     1  UNL1        0.2383
     13 H          16.1605   69.9509   -3.8453 H       1  UNL1        0.2105
     14 H          17.4741   69.2384   -5.9206 H       1  UNL1        0.2106
     15 O          18.5049   72.6223   -7.4006 O.2     1  UNL1       -0.2464
     16 O          22.9555   73.7193   -7.8827 O.2     1  UNL1       -0.2670
     17 N          19.9025   72.4097   -5.5405 N.ar    1  UNL1       -0.2551
     18 N          20.7221   73.1670   -7.6384 N.ar    1  UNL1       -0.2743
     19 C          19.6228   72.7232   -6.8917 C.ar    1  UNL1        0.3323
     20 C          21.1923   72.5533   -5.0437 C.ar    1  UNL1        0.0869
     21 C          22.2299   72.9777   -5.7677 C.ar    1  UNL1        0.0795
     22 C          22.0230   73.3254   -7.1888 C.ar    1  UNL1        0.2626
     23 H          20.5524   73.3894   -8.5824 H       1  UNL1        0.1734
     24 O          22.2067   71.4625    0.7287 O.3     1  UNL1       -0.2703
     25 P          22.1601   73.0599    0.4843 P.3     1  UNL1        0.2208
     26 O          20.6103   73.3306    0.1031 O.co2   1  UNL1       -0.4371
     27 O          23.1435   73.5557   -0.5359 O.2     1  UNL1       -0.5170
     28 O          22.3367   73.7040    1.9528 O.3     1  UNL1       -0.2858
     29 O          24.0389   73.6637    3.5990 O.3     1  UNL1       -0.3226
     30 O          20.6280   73.3473    5.9086 O.3     1  UNL1       -0.3794
     31 O          20.8724   71.8454    3.4149 O.3     1  UNL1       -0.3775
     32 O          22.0708   75.8675    5.7743 O.3     1  UNL1       -0.3792
     33 C          21.4113   73.7688    4.7919 C.3     1  UNL1        0.1718
     34 C          21.9398   72.5433    4.0459 C.3     1  UNL1        0.1968
     35 C          22.5735   74.6121    5.3208 C.3     1  UNL1        0.1723
     36 C          22.9655   72.9482    2.9863 C.3     1  UNL1        0.2706
     37 C          23.6157   74.8673    4.2357 C.3     1  UNL1        0.1830
     38 H          19.8832   72.8095    5.5968 H       1  UNL1        0.2105
     39 H          20.2177   71.5857    4.0814 H       1  UNL1        0.2106
     40 H          21.4063   75.7192    6.4652 H       1  UNL1        0.2106
     41 O          24.7715   76.7227    5.0860 O.co2   1  UNL1       -0.5466
     42 O          25.8801   74.7304    5.0573 O.co2   1  UNL1       -0.5466
     43 C          24.8809   75.3957    4.8292 C.2     1  UNL1        0.0799
@<TRIPOS>UNITY_ATOM_ATTR
2 1
charge -1
26 1
charge -1
41 1
charge -1
@<TRIPOS>BOND
     1     1     4    1
     2     1    24    1
     3     1     2    1
     4     1     3    2
     5    25    28    1
     6    25    24    1
     7    25    26    1
     8    25    27    2
     9     6    11    1
    10     6    12    1
    11    29    36    1
    12    29    37    1
    13     7     9    1
    14     7    13    1
    15     8    10    1
    16     8    14    1
    17     4     5    1
    18    28    36    1
    19    30    33    1
    20    30    38    1
    21    31    34    1
    22    31    39    1
    23    32    35    1
    24    32    40    1
    25    41    43   ar
    26    15    19    2
    27    42    43   ar
    28    16    22    2
    29    17    12    1
    30    17    19   ar
    31    17    20   ar
    32    18    19   ar
    33    18    22   ar
    34    18    23    1
    35     9    10    1
    36     9    11    1
    37    10    12    1
    38    11     5    1
    39    33    34    1
    40    33    35    1
    41    34    36    1
    42    35    37    1
    43    37    43    1
    44    20    21   ar
    45    21    22   ar
@<TRIPOS>MOLECULE
*****
 43 45 0 0 0
SMALL
GASTEIGER

@<TRIPOS>ATOM
      1 P          18.9923   74.3927   -3.1070 P.3     1  UNL1        0.2189
      2 O          17.4635   74.9234   -3.0998 O.co2   1  UNL1       -0.4371
      3 O          19.2054   73.0655   -2.4398 O.2     1  UNL1       -0.5170
      4 O          19.8361   75.6302   -2.4950 O.3     1  UNL1       -0.3112
      5 C          21.2102   75.4380   -2.2133 C.3     1  UNL1        0.1811
      6 O          21.2243   74.8757    0.1237 O.3     1  UNL1       -0.3308
      7 O          23.0315   77.2401    0.4910 O.3     1  UNL1       -0.3794
      8 O          24.7758   75.1446    0.5338 O.3     1  UNL1       -0.3779
      9 C          22.9654   76.3130   -0.5928 C.3     1  UNL1        0.1713
     10 C          23.5707   74.9864   -0.1854 C.3     1  UNL1        0.1895
     11 C          21.5038   75.9440   -0.8069 C.3     1  UNL1        0.1764
     12 C          22.4621   74.3795    0.6575 C.3     1  UNL1        0.2383
     13 H          23.9559   77.4907    0.6467 H       1  UNL1        0.2105
     14 H          25.4497   75.5339   -0.0461 H       1  UNL1        0.2106
     15 O          22.6549   72.6930    2.9148 O.2     1  UNL1       -0.2464
     16 O          22.4184   68.8902    0.3213 O.2     1  UNL1       -0.2670
     17 N          22.4533   72.9451    0.6008 N.ar    1  UNL1       -0.2551
     18 N          22.5379   70.8006    1.6208 N.ar    1  UNL1       -0.2743
     19 C          22.5558   72.1909    1.7936 C.ar    1  UNL1        0.3323
     20 C          22.3427   72.3001   -0.6250 C.ar    1  UNL1        0.0869
     21 C          22.3269   70.9740   -0.7739 C.ar    1  UNL1        0.0795
     22 C          22.4303   70.1132    0.4227 C.ar    1  UNL1        0.2626
     23 H          22.6100   70.2544    2.4368 H       1  UNL1        0.1734
     24 O          19.3813   74.4280   -4.6755 O.3     1  UNL1       -0.2703
     25 P          20.5630   73.6870   -5.4930 P.3     1  UNL1        0.2208
     26 O          21.0799   72.5583   -4.4541 O.co2   1  UNL1       -0.4371
     27 O          21.6388   74.6082   -5.9909 O.2     1  UNL1       -0.5170
     28 O          19.8030   72.8582   -6.6497 O.3     1  UNL1       -0.2858
     29 O          19.0944   70.6701   -6.0847 O.3     1  UNL1       -0.3226
     30 O          18.6220   70.6732  -10.1889 O.3     1  UNL1       -0.3794
     31 O          20.9861   71.8809   -8.9695 O.3     1  UNL1       -0.3775
     32 O          16.3012   70.8982   -8.4528 O.3     1  UNL1       -0.3792
     33 C          18.6474   71.2417   -8.8797 C.3     1  UNL1        0.1718
     34 C          20.0418   71.0736   -8.2757 C.3     1  UNL1        0.1968
     35 C          17.6067   70.5123   -8.0272 C.3     1  UNL1        0.1723
     36 C          20.0475   71.4605   -6.7962 C.3     1  UNL1        0.2706
     37 C          17.7587   70.8553   -6.5480 C.3     1  UNL1        0.1830
     38 H          19.2756   71.1211  -10.7488 H       1  UNL1        0.2105
     39 H          20.9875   71.6410   -9.9090 H       1  UNL1        0.2106
     40 H          16.1915   70.6854   -9.3928 H       1  UNL1        0.2106
     41 O          17.1791   70.1609   -4.3839 O.co2   1  UNL1       -0.5466
     42 O          16.2463   69.0233   -6.1261 O.co2   1  UNL1       -0.5466
     43 C          16.9750   69.9070   -5.7003 C.2     1  UNL1        0.0799
@<TRIPOS>UNITY_ATOM_ATTR
2 1
charge -1
26 1
charge -1
41 1
charge -1
@<TRIPOS>BOND
     1     1     4    1
     2     1    24    1
     3     1     2    1
     4     1     3    2
     5    25    28    1
     6    25    24    1
     7    25    26    1
     8    25    27    2
     9     6    11    1
    10     6    12    1
    11    29    36    1
    12    29    37    1
    13     7     9    1
    14     7    13    1
    15     8    10    1
    16     8    14    1
    17     4     5    1
    18    28    36    1
    19    30    33    1
    20    30    38    1
    21    31    34    1
    22    31    39    1
    23    32    35    1
    24    32    40    1
    25    41    43   ar
    26    15    19    2
    27    42    43   ar
    28    16    22    2
    29    17    12    1
    30    17    19   ar
    31    17    20   ar
    32    18    19   ar
    33    18    22   ar
    34    18    23    1
    35     9    10    1
    36     9    11    1
    37    10    12    1
    38    11     5    1
    39    33    34    1
    40    33    35    1
    41    34    36    1
    42    35    37    1
    43    37    43    1
    44    20    21   ar
    45    21    22   ar
@<TRIPOS>MOLECULE
*****
 43 45 0 0 0
SMALL
GASTEIGER

@<TRIPOS>ATOM
      1 P          16.9326   70.4722   -5.8859 P.3     1  UNL1        0.2189
      2 O          16.1004   69.2926   -6.6173 O.co2   1  UNL1       -0.4371
      3 O          16.1644   71.7405   -5.6556 O.2     1  UNL1       -0.5170
      4 O          18.2726   70.6151   -6.7813 O.3     1  UNL1       -0.3112
      5 C          18.1605   70.5046   -8.1884 C.3     1  UNL1        0.1811
      6 O          18.2623   72.3517   -9.7231 O.3     1  UNL1       -0.3308
      7 O          20.8818   73.0369   -8.4345 O.3     1  UNL1       -0.3794
      8 O          19.1638   74.8051   -7.2691 O.3     1  UNL1       -0.3779
      9 C          19.6964   72.5033   -7.8439 C.3     1  UNL1        0.1713
     10 C          18.6369   73.5791   -7.7314 C.3     1  UNL1        0.1895
     11 C          19.0675   71.5398   -8.8411 C.3     1  UNL1        0.1764
     12 C          18.1218   73.6648   -9.1580 C.3     1  UNL1        0.2383
     13 H          21.3014   73.6556   -7.8158 H       1  UNL1        0.2105
     14 H          19.4781   74.6985   -6.3570 H       1  UNL1        0.2106
     15 O          16.8165   74.5451  -11.5028 O.2     1  UNL1       -0.2464
     16 O          12.8234   75.1343   -9.2776 O.2     1  UNL1       -0.2670
     17 N          16.7415   74.0545   -9.2198 N.ar    1  UNL1       -0.2551
     18 N          14.8292   74.8387  -10.3921 N.ar    1  UNL1       -0.2743
     19 C          16.1829   74.4816  -10.4476 C.ar    1  UNL1        0.3323
     20 C          15.9564   74.0098   -8.0741 C.ar    1  UNL1        0.0869
     21 C          14.6674   74.3532   -8.0368 C.ar    1  UNL1        0.0795
     22 C          14.0074   74.8116   -9.2769 C.ar    1  UNL1        0.2626
     23 H          14.4186   75.1413  -11.2342 H       1  UNL1        0.1734
     24 O          17.4697   69.7564   -4.5398 O.3     1  UNL1       -0.2703
     25 P          18.0893   70.3778   -3.1820 P.3     1  UNL1        0.2208
     26 O          18.6376   69.0739   -2.3950 O.co2   1  UNL1       -0.4371
     27 O          17.1259   71.2165   -2.3930 O.2     1  UNL1       -0.5170
     28 O          19.4200   71.1557   -3.6579 O.3     1  UNL1       -0.2858
     29 O          20.6303   71.5493   -1.6605 O.3     1  UNL1       -0.3226
     30 O          23.2572   72.9498   -4.5251 O.3     1  UNL1       -0.3794
     31 O          20.4009   73.5294   -4.7253 O.3     1  UNL1       -0.3775
     32 O          23.7315   70.3861   -3.2392 O.3     1  UNL1       -0.3792
     33 C          22.2296   72.1104   -3.9984 C.3     1  UNL1        0.1718
     34 C          21.0332   72.9662   -3.5818 C.3     1  UNL1        0.1968
     35 C          22.7999   71.3675   -2.7881 C.3     1  UNL1        0.1723
     36 C          20.0102   72.1356   -2.8056 C.3     1  UNL1        0.2706
     37 C          21.6999   70.6677   -1.9950 C.3     1  UNL1        0.1830
     38 H          22.9178   73.4322   -5.2954 H       1  UNL1        0.2105
     39 H          21.0444   74.0576   -5.2227 H       1  UNL1        0.2106
     40 H          24.4367   70.8185   -3.7456 H       1  UNL1        0.2106
     41 O          21.1750   69.8946    0.1563 O.co2   1  UNL1       -0.5466
     42 O          23.3829   70.1794   -0.3366 O.co2   1  UNL1       -0.5466
     43 C          22.2053   70.2312   -0.6585 C.2     1  UNL1        0.0799
@<TRIPOS>UNITY_ATOM_ATTR
2 1
charge -1
26 1
charge -1
41 1
charge -1
@<TRIPOS>BOND
     1     1     4    1
     2     1    24    1
     3     1     2    1
     4     1     3    2
     5    25    28    1
     6    25    24    1
     7    25    26    1
     8    25    27    2
     9     6    11    1
    10     6    12    1
    11    29    36    1
    12    29    37    1
    13     7     9    1
    14     7    13    1
    15     8    10    1
    16     8    14    1
    17     4     5    1
    18    28    36    1
    19    30    33    1
    20    30    38    1
    21    31    34    1
    22    31    39    1
    23    32    35    1
    24    32    40    1
    25    41    43   ar
    26    15    19    2
    27    42    43   ar
    28    16    22    2
    29    17    12    1
    30    17    19   ar
    31    17    20   ar
    32    18    19   ar
    33    18    22   ar
    34    18    23    1
    35     9    10    1
    36     9    11    1
    37    10    12    1
    38    11     5    1
    39    33    34    1
    40    33    35    1
    41    34    36    1
    42    35    37    1
    43    37    43    1
    44    20    21   ar
    45    21    22   ar
@<TRIPOS>MOLECULE
*****
 43 45 0 0 0
SMALL
GASTEIGER

@<TRIPOS>ATOM
      1 P          22.4044   71.5805   -2.9058 P.3     1  UNL1        0.2189
      2 O          21.4283   71.0713   -1.7197 O.co2   1  UNL1       -0.4371
      3 O          23.5434   70.6585   -3.2286 O.2     1  UNL1       -0.5170
      4 O          22.8188   73.0773   -2.4523 O.3     1  UNL1       -0.3112
      5 C          22.3432   73.5637   -1.2107 C.3     1  UNL1        0.1811
      6 O          22.2549   75.5032    0.2065 O.3     1  UNL1       -0.3308
      7 O          24.6558   76.4830   -1.2993 O.3     1  UNL1       -0.3794
      8 O          25.7499   75.5203    1.0055 O.3     1  UNL1       -0.3779
      9 C          24.3096   75.1512   -0.9183 C.3     1  UNL1        0.1713
     10 C          24.5319   74.9562    0.5665 C.3     1  UNL1        0.1895
     11 C          22.7984   75.0068   -1.0359 C.3     1  UNL1        0.1764
     12 C          23.3182   75.6502    1.1609 C.3     1  UNL1        0.2383
     13 H          25.6168   76.5993   -1.2322 H       1  UNL1        0.2105
     14 H          26.4917   75.0440    0.5996 H       1  UNL1        0.2106
     15 O          22.0716   77.0773    3.2552 O.2     1  UNL1       -0.2464
     16 O          21.7959   73.3134    5.9011 O.2     1  UNL1       -0.2670
     17 N          22.9101   75.0679    2.4080 N.ar    1  UNL1       -0.2551
     18 N          21.9364   75.2015    4.5714 N.ar    1  UNL1       -0.2743
     19 C          22.2923   75.8727    3.3942 C.ar    1  UNL1        0.3323
     20 C          23.1211   73.7148    2.6436 C.ar    1  UNL1        0.0869
     21 C          22.7763   73.0890    3.7707 C.ar    1  UNL1        0.0795
     22 C          22.1262   73.8581    4.8521 C.ar    1  UNL1        0.2626
     23 H          21.5065   75.7415    5.2735 H       1  UNL1        0.1734
     24 O          21.3819   71.8418   -4.1302 O.3     1  UNL1       -0.2703
     25 P          21.3119   73.0354   -5.2183 P.3     1  UNL1        0.2208
     26 O          22.7083   72.8845   -6.0231 O.co2   1  UNL1       -0.4371
     27 O          21.0833   74.3959   -4.6261 O.2     1  UNL1       -0.5170
     28 O          20.1829   72.5647   -6.2701 O.3     1  UNL1       -0.2858
     29 O          19.0598   70.4807   -6.2022 O.3     1  UNL1       -0.3226
     30 O          18.7110   71.4940  -10.1921 O.3     1  UNL1       -0.3794
     31 O          21.2251   71.9268   -8.7686 O.3     1  UNL1       -0.3775
     32 O          16.4264   71.7594   -8.4141 O.3     1  UNL1       -0.3792
     33 C          18.8064   71.7388   -8.7889 C.3     1  UNL1        0.1718
     34 C          20.1269   71.1784   -8.2602 C.3     1  UNL1        0.1968
     35 C          17.6237   71.0476   -8.1068 C.3     1  UNL1        0.1723
     36 C          20.1641   71.2152   -6.7318 C.3     1  UNL1        0.2706
     37 C          17.7962   71.0148   -6.5910 C.3     1  UNL1        0.1830
     38 H          19.4525   71.9239  -10.6467 H       1  UNL1        0.2105
     39 H          21.2076   71.9079   -9.7380 H       1  UNL1        0.2106
     40 H          16.3049   71.7876   -9.3760 H       1  UNL1        0.2106
     41 O          16.8887   70.1373   -4.6141 O.co2   1  UNL1       -0.5466
     42 O          16.0713   69.3278   -6.5828 O.co2   1  UNL1       -0.5466
     43 C          16.8248   70.0667   -5.9668 C.2     1  UNL1        0.0799
@<TRIPOS>UNITY_ATOM_ATTR
2 1
charge -1
26 1
charge -1
41 1
charge -1
@<TRIPOS>BOND
     1     1     4    1
     2     1    24    1
     3     1     2    1
     4     1     3    2
     5    25    28    1
     6    25    24    1
     7    25    26    1
     8    25    27    2
     9     6    11    1
    10     6    12    1
    11    29    36    1
    12    29    37    1
    13     7     9    1
    14     7    13    1
    15     8    10    1
    16     8    14    1
    17     4     5    1
    18    28    36    1
    19    30    33    1
    20    30    38    1
    21    31    34    1
    22    31    39    1
    23    32    35    1
    24    32    40    1
    25    41    43   ar
    26    15    19    2
    27    42    43   ar
    28    16    22    2
    29    17    12    1
    30    17    19   ar
    31    17    20   ar
    32    18    19   ar
    33    18    22   ar
    34    18    23    1
    35     9    10    1
    36     9    11    1
    37    10    12    1
    38    11     5    1
    39    33    34    1
    40    33    35    1
    41    34    36    1
    42    35    37    1
    43    37    43    1
    44    20    21   ar
    45    21    22   ar
@<TRIPOS>MOLECULE
*****
 43 45 0 0 0
SMALL
GASTEIGER

@<TRIPOS>ATOM
      1 P          21.7086   73.0111   -5.0894 P.3     1  UNL1        0.2189
      2 O          21.0740   74.4971   -4.9992 O.co2   1  UNL1       -0.4371
      3 O          23.1871   72.9679   -5.3424 O.2     1  UNL1       -0.5170
      4 O          20.7858   72.2604   -6.1861 O.3     1  UNL1       -0.3112
      5 C          21.2321   72.2163   -7.5289 C.3     1  UNL1        0.1811
      6 O          19.0390   71.2358   -7.6111 O.3     1  UNL1       -0.3308
      7 O          19.5119   70.8788  -10.5505 O.3     1  UNL1       -0.3794
      8 O          17.9243   73.0944  -10.4672 O.3     1  UNL1       -0.3779
      9 C          19.9213   71.9438   -9.6922 C.3     1  UNL1        0.1713
     10 C          18.7376   72.8218   -9.3452 C.3     1  UNL1        0.1895
     11 C          20.2812   71.3450   -8.3394 C.3     1  UNL1        0.1764
     12 C          18.0241   71.9885   -8.2943 C.3     1  UNL1        0.2383
     13 H          19.2768   71.2370  -11.4212 H       1  UNL1        0.2105
     14 H          18.4235   73.6272  -11.1066 H       1  UNL1        0.2106
     15 O          16.0049   71.0250   -6.5706 O.2     1  UNL1       -0.2464
     16 O          15.3898   75.1793   -4.6714 O.2     1  UNL1       -0.2670
     17 N          17.3198   72.7966   -7.3395 N.ar    1  UNL1       -0.2551
     18 N          15.6998   73.0952   -5.6270 N.ar    1  UNL1       -0.2743
     19 C          16.3227   72.2148   -6.5214 C.ar    1  UNL1        0.3323
     20 C          17.6197   74.1481   -7.2194 C.ar    1  UNL1        0.0869
     21 C          17.0174   74.9747   -6.3622 C.ar    1  UNL1        0.0795
     22 C          15.9632   74.4465   -5.4716 C.ar    1  UNL1        0.2626
     23 H          15.0007   72.7136   -5.0483 H       1  UNL1        0.1734
     24 O          21.2435   72.3330   -3.6977 O.3     1  UNL1       -0.2703
     25 P          21.6246   70.9104   -3.0308 P.3     1  UNL1        0.2208
     26 O          23.2201   70.8003   -3.2807 O.co2   1  UNL1       -0.4371
     27 O          20.8339   69.7499   -3.5617 O.2     1  UNL1       -0.5170
     28 O          21.4769   71.1504   -1.4424 O.3     1  UNL1       -0.2858
     29 O          23.1993   72.5890   -0.6854 O.3     1  UNL1       -0.3226
     30 O          21.2640   71.6641    2.8455 O.3     1  UNL1       -0.3794
     31 O          21.7647   69.5947    0.8452 O.3     1  UNL1       -0.3775
     32 O          20.8751   74.2648    1.6063 O.3     1  UNL1       -0.3792
     33 C          21.3696   71.9124    1.4437 C.3     1  UNL1        0.1718
     34 C          22.3285   70.9007    0.8156 C.3     1  UNL1        0.1968
     35 C          21.8985   73.3358    1.2541 C.3     1  UNL1        0.1723
     36 C          22.6452   71.2738   -0.6334 C.3     1  UNL1        0.2706
     37 C          22.3100   73.5891   -0.1933 C.3     1  UNL1        0.1830
     38 H          20.9297   70.7649    2.9905 H       1  UNL1        0.2105
     39 H          21.5610   69.3516    1.7616 H       1  UNL1        0.2106
     40 H          20.6041   74.1143    2.5254 H       1  UNL1        0.2106
     41 O          22.3715   75.9236    0.0248 O.co2   1  UNL1       -0.5466
     42 O          24.2921   74.8902   -0.6405 O.co2   1  UNL1       -0.5466
     43 C          23.1185   74.8406   -0.3038 C.2     1  UNL1        0.0799
@<TRIPOS>UNITY_ATOM_ATTR
2 1
charge -1
26 1
charge -1
41 1
charge -1
@<TRIPOS>BOND
     1     1     4    1
     2     1    24    1
     3     1     2    1
     4     1     3    2
     5    25    28    1
     6    25    24    1
     7    25    26    1
     8    25    27    2
     9     6    11    1
    10     6    12    1
    11    29    36    1
    12    29    37    1
    13     7     9    1
    14     7    13    1
    15     8    10    1
    16     8    14    1
    17     4     5    1
    18    28    36    1
    19    30    33    1
    20    30    38    1
    21    31    34    1
    22    31    39    1
    23    32    35    1
    24    32    40    1
    25    41    43   ar
    26    15    19    2
    27    42    43   ar
    28    16    22    2
    29    17    12    1
    30    17    19   ar
    31    17    20   ar
    32    18    19   ar
    33    18    22   ar
    34    18    23    1
    35     9    10    1
    36     9    11    1
    37    10    12    1
    38    11     5    1
    39    33    34    1
    40    33    35    1
    41    34    36    1
    42    35    37    1
    43    37    43    1
    44    20    21   ar
    45    21    22   ar
@<TRIPOS>MOLECULE
*****
 43 45 0 0 0
SMALL
GASTEIGER

@<TRIPOS>ATOM
      1 P          18.1615   71.4253   -3.6680 P.3     1  UNL1        0.2189
      2 O          17.4549   70.2942   -2.7513 O.co2   1  UNL1       -0.4371
      3 O          17.8576   72.8410   -3.2741 O.2     1  UNL1       -0.5170
      4 O          17.7522   71.0129   -5.1781 O.3     1  UNL1       -0.3112
      5 C          18.7414   71.0792   -6.1888 C.3     1  UNL1        0.1811
      6 O          16.7045   71.0946   -7.4649 O.3     1  UNL1       -0.3308
      7 O          18.4419   70.8099   -9.8923 O.3     1  UNL1       -0.3794
      8 O          17.8307   73.4674   -9.9054 O.3     1  UNL1       -0.3779
      9 C          18.6821   71.5414   -8.6899 C.3     1  UNL1        0.1713
     10 C          17.8366   72.7970   -8.6624 C.3     1  UNL1        0.1895
     11 C          18.1034   70.7421   -7.5303 C.3     1  UNL1        0.1764
     12 C          16.4703   72.2490   -8.2870 C.3     1  UNL1        0.2383
     13 H          18.8029   71.3010  -10.6474 H       1  UNL1        0.2105
     14 H          18.7226   73.7976  -10.0989 H       1  UNL1        0.2106
     15 O          14.7885   74.1882   -9.4650 O.2     1  UNL1       -0.2464
     16 O          13.5001   75.8318   -5.3562 O.2     1  UNL1       -0.2670
     17 N          15.6840   73.1963   -7.5486 N.ar    1  UNL1       -0.2551
     18 N          14.1492   75.0056   -7.4175 N.ar    1  UNL1       -0.2743
     19 C          14.8722   74.1287   -8.2369 C.ar    1  UNL1        0.3323
     20 C          15.7202   73.1946   -6.1595 C.ar    1  UNL1        0.0869
     21 C          15.0253   74.0366   -5.3920 C.ar    1  UNL1        0.0795
     22 C          14.1531   75.0428   -6.0325 C.ar    1  UNL1        0.2626
     23 H          13.5784   75.6653   -7.8740 H       1  UNL1        0.1734
     24 O          19.7263   71.0269   -3.5940 O.3     1  UNL1       -0.2703
     25 P          20.4880   69.8656   -2.7665 P.3     1  UNL1        0.2208
     26 O          19.7841   68.5090   -3.2999 O.co2   1  UNL1       -0.4371
     27 O          20.4430   70.0408   -1.2762 O.2     1  UNL1       -0.5170
     28 O          21.9747   69.8256   -3.3914 O.3     1  UNL1       -0.2858
     29 O          23.3179   71.7534   -3.6894 O.3     1  UNL1       -0.3226
     30 O          21.1586   72.7474   -0.3104 O.3     1  UNL1       -0.3794
     31 O          22.2480   70.0560   -0.6331 O.3     1  UNL1       -0.3775
     32 O          20.4787   73.9309   -2.8771 O.3     1  UNL1       -0.3792
     33 C          21.3886   72.1212   -1.5725 C.3     1  UNL1        0.1718
     34 C          22.5769   71.1657   -1.4608 C.3     1  UNL1        0.1968
     35 C          21.6824   73.2183   -2.5982 C.3     1  UNL1        0.1723
     36 C          22.9974   70.6521   -2.8385 C.3     1  UNL1        0.2706
     37 C          22.2161   72.6330   -3.9025 C.3     1  UNL1        0.1830
     38 H          20.9697   72.0694    0.3575 H       1  UNL1        0.2105
     39 H          21.9800   70.3746    0.2427 H       1  UNL1        0.2106
     40 H          20.1285   74.3083   -2.0551 H       1  UNL1        0.2106
     41 O          22.9153   73.2790   -6.0462 O.co2   1  UNL1       -0.5466
     42 O          23.1371   74.8128   -4.3736 O.co2   1  UNL1       -0.5466
     43 C          22.8033   73.7038   -4.7633 C.2     1  UNL1        0.0799
@<TRIPOS>UNITY_ATOM_ATTR
2 1
charge -1
26 1
charge -1
41 1
charge -1
@<TRIPOS>BOND
     1     1     4    1
     2     1    24    1
     3     1     2    1
     4     1     3    2
     5    25    28    1
     6    25    24    1
     7    25    26    1
     8    25    27    2
     9     6    11    1
    10     6    12    1
    11    29    36    1
    12    29    37    1
    13     7     9    1
    14     7    13    1
    15     8    10    1
    16     8    14    1
    17     4     5    1
    18    28    36    1
    19    30    33    1
    20    30    38    1
    21    31    34    1
    22    31    39    1
    23    32    35    1
    24    32    40    1
    25    41    43   ar
    26    15    19    2
    27    42    43   ar
    28    16    22    2
    29    17    12    1
    30    17    19   ar
    31    17    20   ar
    32    18    19   ar
    33    18    22   ar
    34    18    23    1
    35     9    10    1
    36     9    11    1
    37    10    12    1
    38    11     5    1
    39    33    34    1
    40    33    35    1
    41    34    36    1
    42    35    37    1
    43    37    43    1
    44    20    21   ar
    45    21    22   ar
