@<TRIPOS>MOLECULE
*****
 43 45 0 0 0
SMALL
GASTEIGER

@<TRIPOS>ATOM
      1 P          22.7164   71.4423   -2.8875 P.3     1  UNL1        0.2189
      2 O          23.0511   72.8996   -3.5051 O.co2   1  UNL1       -0.4371
      3 O          23.6590   70.3488   -3.2966 O.2     1  UNL1       -0.5170
      4 O          21.1611   71.2076   -3.2667 O.3     1  UNL1       -0.3112
      5 C          20.4005   72.3150   -3.7173 C.3     1  UNL1        0.1811
      6 O          18.2332   72.1828   -4.7463 O.3     1  UNL1       -0.3308
      7 O          17.3987   70.5873   -2.3486 O.3     1  UNL1       -0.3794
      8 O          17.8103   68.6586   -4.2320 O.3     1  UNL1       -0.3779
      9 C          18.6504   70.5997   -3.0330 C.3     1  UNL1        0.1713
     10 C          18.5355   69.8654   -4.3525 C.3     1  UNL1        0.1895
     11 C          18.9230   72.0284   -3.4867 C.3     1  UNL1        0.1764
     12 C          17.8262   70.8894   -5.2222 C.3     1  UNL1        0.2383
     13 H          17.2032   69.6852   -2.0489 H       1  UNL1        0.2105
     14 H          18.3024   68.0402   -3.6698 H       1  UNL1        0.2106
     15 O          15.9628   70.6227   -7.3281 O.2     1  UNL1       -0.2464
     16 O          19.2996   70.4374  -10.5018 O.2     1  UNL1       -0.2670
     17 N          18.1804   70.7700   -6.6085 N.ar    1  UNL1       -0.2551
     18 N          17.6258   70.5308   -8.9066 N.ar    1  UNL1       -0.2743
     19 C          17.1678   70.6398   -7.5874 C.ar    1  UNL1        0.3323
     20 C          19.5189   70.7829   -6.9853 C.ar    1  UNL1        0.0869
     21 C          19.9391   70.6767   -8.2476 C.ar    1  UNL1        0.0795
     22 C          18.9450   70.5372   -9.3313 C.ar    1  UNL1        0.2626
     23 H          16.9382   70.4388   -9.6056 H       1  UNL1        0.1734
     24 O          22.6638   71.7250   -1.2968 O.3     1  UNL1       -0.2703
     25 P          22.3876   70.7329   -0.0508 P.3     1  UNL1        0.2208
     26 O          23.7230   69.8209    0.0005 O.co2   1  UNL1       -0.4371
     27 O          21.1090   69.9532   -0.1568 O.2     1  UNL1       -0.5170
     28 O          22.4888   71.6776    1.2538 O.3     1  UNL1       -0.2858
     29 O          21.3843   72.2334    3.2757 O.3     1  UNL1       -0.3258
     30 O          21.3054   75.9325    1.4423 O.3     1  UNL1       -0.3794
     31 O          23.0722   75.4877    3.6623 O.3     1  UNL1       -0.3794
     32 O          20.9010   73.5341   -0.1273 O.3     1  UNL1       -0.3775
     33 C          21.8564   74.6561    1.7779 C.3     1  UNL1        0.1715
     34 C          22.0264   74.5915    3.2970 C.3     1  UNL1        0.1694
     35 C          20.9074   73.5605    1.2960 C.3     1  UNL1        0.1967
     36 C          22.3593   73.1658    3.7571 C.3     1  UNL1        0.1761
     37 C          21.2997   72.1896    1.8499 C.3     1  UNL1        0.2704
     38 H          21.9034   76.6327    1.7451 H       1  UNL1        0.2105
     39 H          22.8498   76.3842    3.3657 H       1  UNL1        0.2105
     40 H          20.6509   74.4075   -0.4656 H       1  UNL1        0.2106
     41 O          21.0585   73.2254    5.7604 O.3     1  UNL1       -0.3794
     42 C          22.3778   73.0458    5.2793 C.3     1  UNL1        0.1693
     43 H          21.0549   73.1513    6.7280 H       1  UNL1        0.2105
@<TRIPOS>UNITY_ATOM_ATTR
2 1
charge -1
26 1
charge -1
@<TRIPOS>BOND
     1    25    28    1
     2    25    24    1
     3    25    26    1
     4    25    27    2
     5     1     4    1
     6     1    24    1
     7     1     2    1
     8     1     3    2
     9     6    11    1
    10     6    12    1
    11    29    36    1
    12    29    37    1
    13     7     9    1
    14     7    13    1
    15     8    10    1
    16     8    14    1
    17    28    37    1
    18     4     5    1
    19    30    33    1
    20    30    38    1
    21    31    34    1
    22    31    39    1
    23    32    35    1
    24    32    40    1
    25    41    42    1
    26    41    43    1
    27    15    19    2
    28    16    22    2
    29    17    12    1
    30    17    19   ar
    31    17    20   ar
    32    18    19   ar
    33    18    22   ar
    34    18    23    1
    35     9    10    1
    36     9    11    1
    37    10    12    1
    38    11     5    1
    39    33    34    1
    40    33    35    1
    41    34    36    1
    42    35    37    1
    43    36    42    1
    44    20    21   ar
    45    21    22   ar
@<TRIPOS>MOLECULE
*****
 43 45 0 0 0
SMALL
GASTEIGER

@<TRIPOS>ATOM
      1 P          22.8605   71.8060   -2.4070 P.3     1  UNL1        0.2189
      2 O          23.6563   73.2102   -2.5197 O.co2   1  UNL1       -0.4371
      3 O          23.4346   70.6850   -3.2226 O.2     1  UNL1       -0.5170
      4 O          21.3267   72.2013   -2.7370 O.3     1  UNL1       -0.3112
      5 C          20.5724   71.3425   -3.5745 C.3     1  UNL1        0.1811
      6 O          18.6437   72.1828   -4.7354 O.3     1  UNL1       -0.3308
      7 O          17.0203   70.9968   -2.5109 O.3     1  UNL1       -0.3794
      8 O          16.7395   69.1526   -4.5001 O.3     1  UNL1       -0.3779
      9 C          18.2138   70.5048   -3.1182 C.3     1  UNL1        0.1713
     10 C          17.9116   69.9420   -4.4914 C.3     1  UNL1        0.1895
     11 C          19.0976   71.7002   -3.4519 C.3     1  UNL1        0.1764
     12 C          17.7727   71.2041   -5.3256 C.3     1  UNL1        0.2383
     13 H          16.4399   70.2513   -2.2885 H       1  UNL1        0.2105
     14 H          16.8780   68.3619   -3.9557 H       1  UNL1        0.2106
     15 O          16.0170   70.3558   -7.3692 O.2     1  UNL1       -0.2464
     16 O          19.3622   70.4588  -10.5379 O.2     1  UNL1       -0.2670
     17 N          18.1581   71.0014   -6.6937 N.ar    1  UNL1       -0.2551
     18 N          17.6840   70.4079   -8.9453 N.ar    1  UNL1       -0.2743
     19 C          17.1995   70.5732   -7.6415 C.ar    1  UNL1        0.3323
     20 C          19.4736   71.2272   -7.0838 C.ar    1  UNL1        0.0869
     21 C          19.9200   71.0638   -8.3309 C.ar    1  UNL1        0.0795
     22 C          18.9824   70.6183   -9.3819 C.ar    1  UNL1        0.2626
     23 H          17.0342   70.1098   -9.6225 H       1  UNL1        0.1734
     24 O          22.8305   71.5322   -0.8141 O.3     1  UNL1       -0.2703
     25 P          22.0395   70.4244    0.0577 P.3     1  UNL1        0.2208
     26 O          23.2189   69.4398    0.5647 O.co2   1  UNL1       -0.4371
     27 O          20.9320   69.7335   -0.6839 O.2     1  UNL1       -0.5170
     28 O          21.5664   71.2110    1.3853 O.3     1  UNL1       -0.2858
     29 O          22.1380   73.4654    0.9293 O.3     1  UNL1       -0.3258
     30 O          20.3453   73.9718    4.6145 O.3     1  UNL1       -0.3794
     31 O          18.9855   74.8526    2.2431 O.3     1  UNL1       -0.3794
     32 O          22.0036   71.6508    4.1222 O.3     1  UNL1       -0.3775
     33 C          20.5292   73.3806    3.3252 C.3     1  UNL1        0.1715
     34 C          20.3587   74.4732    2.2679 C.3     1  UNL1        0.1694
     35 C          21.9288   72.7732    3.2498 C.3     1  UNL1        0.1967
     36 C          20.8016   73.9790    0.8842 C.3     1  UNL1        0.1761
     37 C          22.2887   72.3596    1.8217 C.3     1  UNL1        0.2704
     38 H          19.4583   74.3589    4.6691 H       1  UNL1        0.2105
     39 H          18.7184   75.1622    3.1229 H       1  UNL1        0.2105
     40 H          21.7739   71.9257    5.0230 H       1  UNL1        0.2106
     41 O          20.4221   74.5473   -1.4053 O.3     1  UNL1       -0.3794
     42 C          20.7889   75.0988   -0.1541 C.3     1  UNL1        0.1693
     43 H          20.4095   75.2487   -2.0759 H       1  UNL1        0.2105
@<TRIPOS>UNITY_ATOM_ATTR
2 1
charge -1
26 1
charge -1
@<TRIPOS>BOND
     1    25    28    1
     2    25    24    1
     3    25    26    1
     4    25    27    2
     5     1     4    1
     6     1    24    1
     7     1     2    1
     8     1     3    2
     9     6    11    1
    10     6    12    1
    11    29    36    1
    12    29    37    1
    13     7     9    1
    14     7    13    1
    15     8    10    1
    16     8    14    1
    17    28    37    1
    18     4     5    1
    19    30    33    1
    20    30    38    1
    21    31    34    1
    22    31    39    1
    23    32    35    1
    24    32    40    1
    25    41    42    1
    26    41    43    1
    27    15    19    2
    28    16    22    2
    29    17    12    1
    30    17    19   ar
    31    17    20   ar
    32    18    19   ar
    33    18    22   ar
    34    18    23    1
    35     9    10    1
    36     9    11    1
    37    10    12    1
    38    11     5    1
    39    33    34    1
    40    33    35    1
    41    34    36    1
    42    35    37    1
    43    36    42    1
    44    20    21   ar
    45    21    22   ar
@<TRIPOS>MOLECULE
*****
 43 45 0 0 0
SMALL
GASTEIGER

@<TRIPOS>ATOM
      1 P          21.9347   73.7771   -5.7196 P.3     1  UNL1        0.2189
      2 O          20.6542   74.4200   -4.9682 O.co2   1  UNL1       -0.4371
      3 O          23.1090   74.6986   -5.8715 O.2     1  UNL1       -0.5170
      4 O          21.3217   73.1872   -7.0959 O.3     1  UNL1       -0.3112
      5 C          20.3497   73.9532   -7.7861 C.3     1  UNL1        0.1811
      6 O          19.6302   71.7293   -8.3433 O.3     1  UNL1       -0.3308
      7 O          17.9351   73.0094  -10.4596 O.3     1  UNL1       -0.3794
      8 O          16.1323   72.5103   -8.4752 O.3     1  UNL1       -0.3779
      9 C          18.2557   73.4820   -9.1522 C.3     1  UNL1        0.1713
     10 C          17.4829   72.7040   -8.1077 C.3     1  UNL1        0.1895
     11 C          19.6938   73.0812   -8.8480 C.3     1  UNL1        0.1764
     12 C          18.2636   71.4024   -8.0427 C.3     1  UNL1        0.2383
     13 H          17.0212   73.2538  -10.6765 H       1  UNL1        0.2105
     14 H          15.6784   73.3670   -8.5026 H       1  UNL1        0.2106
     15 O          16.0305   69.9919   -7.0418 O.2     1  UNL1       -0.2464
     16 O          18.1501   69.1065   -3.0462 O.2     1  UNL1       -0.2670
     17 N          18.2048   70.7926   -6.7442 N.ar    1  UNL1       -0.2551
     18 N          17.0878   69.5520   -5.0531 N.ar    1  UNL1       -0.2743
     19 C          17.0357   70.1083   -6.3376 C.ar    1  UNL1        0.3323
     20 C          19.2983   70.8763   -5.8891 C.ar    1  UNL1        0.0869
     21 C          19.3316   70.3415   -4.6668 C.ar    1  UNL1        0.0795
     22 C          18.1506   69.6094   -4.1655 C.ar    1  UNL1        0.2626
     23 H          16.2845   69.0708   -4.7483 H       1  UNL1        0.1734
     24 O          22.2327   72.4447   -4.8542 O.3     1  UNL1       -0.2703
     25 P          23.1064   72.2238   -3.5123 P.3     1  UNL1        0.2208
     26 O          24.3679   73.2146   -3.7236 O.co2   1  UNL1       -0.4371
     27 O          23.4796   70.7936   -3.2494 O.2     1  UNL1       -0.5170
     28 O          22.2374   72.9145   -2.3407 O.3     1  UNL1       -0.2858
     29 O          21.5029   71.1725   -0.9114 O.3     1  UNL1       -0.3258
     30 O          19.6485   74.3668    0.9348 O.3     1  UNL1       -0.3794
     31 O          21.9147   73.1251    2.1881 O.3     1  UNL1       -0.3794
     32 O          19.8059   74.2611   -1.9537 O.3     1  UNL1       -0.3775
     33 C          20.6919   73.7039    0.2156 C.3     1  UNL1        0.1715
     34 C          21.2183   72.5580    1.0818 C.3     1  UNL1        0.1694
     35 C          20.1294   73.1689   -1.1000 C.3     1  UNL1        0.1967
     36 C          22.1488   71.6389    0.2790 C.3     1  UNL1        0.1761
     37 C          21.1149   72.2271   -1.7942 C.3     1  UNL1        0.2704
     38 H          19.9992   74.7093    1.7710 H       1  UNL1        0.2105
     39 H          21.3161   73.7036    2.6863 H       1  UNL1        0.2105
     40 H          19.1812   74.8497   -1.5030 H       1  UNL1        0.2106
     41 O          22.3520   69.2582    0.2706 O.3     1  UNL1       -0.3794
     42 C          22.5599   70.4033    1.0767 C.3     1  UNL1        0.1693
     43 H          22.6097   68.4641    0.7653 H       1  UNL1        0.2105
@<TRIPOS>UNITY_ATOM_ATTR
2 1
charge -1
26 1
charge -1
@<TRIPOS>BOND
     1    25    28    1
     2    25    24    1
     3    25    26    1
     4    25    27    2
     5     1     4    1
     6     1    24    1
     7     1     2    1
     8     1     3    2
     9     6    11    1
    10     6    12    1
    11    29    36    1
    12    29    37    1
    13     7     9    1
    14     7    13    1
    15     8    10    1
    16     8    14    1
    17    28    37    1
    18     4     5    1
    19    30    33    1
    20    30    38    1
    21    31    34    1
    22    31    39    1
    23    32    35    1
    24    32    40    1
    25    41    42    1
    26    41    43    1
    27    15    19    2
    28    16    22    2
    29    17    12    1
    30    17    19   ar
    31    17    20   ar
    32    18    19   ar
    33    18    22   ar
    34    18    23    1
    35     9    10    1
    36     9    11    1
    37    10    12    1
    38    11     5    1
    39    33    34    1
    40    33    35    1
    41    34    36    1
    42    35    37    1
    43    36    42    1
    44    20    21   ar
    45    21    22   ar
@<TRIPOS>MOLECULE
*****
 43 45 0 0 0
SMALL
GASTEIGER

@<TRIPOS>ATOM
      1 P          21.9733   71.4530   -1.2659 P.3     1  UNL1        0.2189
      2 O          23.1425   70.3906   -1.6150 O.co2   1  UNL1       -0.4371
      3 O          20.8793   70.9248   -0.3852 O.2     1  UNL1       -0.5170
      4 O          21.5055   72.0053   -2.7130 O.3     1  UNL1       -0.3112
      5 C          20.7054   71.1682   -3.5297 C.3     1  UNL1        0.1811
      6 O          18.7998   72.1112   -4.6492 O.3     1  UNL1       -0.3308
      7 O          17.1529   70.9343   -2.4372 O.3     1  UNL1       -0.3794
      8 O          16.7812   69.1523   -4.4677 O.3     1  UNL1       -0.3779
      9 C          18.3204   70.4116   -3.0689 C.3     1  UNL1        0.1713
     10 C          17.9832   69.8951   -4.4521 C.3     1  UNL1        0.1895
     11 C          19.2469   71.5797   -3.3827 C.3     1  UNL1        0.1764
     12 C          17.8856   71.1819   -5.2538 C.3     1  UNL1        0.2383
     13 H          16.5461   70.2066   -2.2268 H       1  UNL1        0.2105
     14 H          16.8940   68.3435   -3.9442 H       1  UNL1        0.2106
     15 O          16.0985   70.3608   -7.2811 O.2     1  UNL1       -0.2464
     16 O          19.3935   70.5097  -10.5001 O.2     1  UNL1       -0.2670
     17 N          18.2496   70.9984   -6.6305 N.ar    1  UNL1       -0.2551
     18 N          17.7405   70.4358   -8.8823 N.ar    1  UNL1       -0.2743
     19 C          17.2764   70.5827   -7.5689 C.ar    1  UNL1        0.3323
     20 C          19.5588   71.2304   -7.0380 C.ar    1  UNL1        0.0869
     21 C          19.9856   71.0845   -8.2941 C.ar    1  UNL1        0.0795
     22 C          19.0318   70.6530   -9.3363 C.ar    1  UNL1        0.2626
     23 H          17.0803   70.1466   -9.5533 H       1  UNL1        0.1734
     24 O          22.7908   72.7027   -0.6470 O.3     1  UNL1       -0.2703
     25 P          22.2916   74.1606   -0.1587 P.3     1  UNL1        0.2208
     26 O          20.8927   74.3571   -0.9475 O.co2   1  UNL1       -0.4371
     27 O          23.2891   75.2598   -0.3837 O.2     1  UNL1       -0.5170
     28 O          21.8640   73.9506    1.3834 O.3     1  UNL1       -0.2858
     29 O          23.7730   74.2036    2.7648 O.3     1  UNL1       -0.3258
     30 O          21.0465   72.9971    5.6216 O.3     1  UNL1       -0.3794
     31 O          21.9248   75.7308    5.5649 O.3     1  UNL1       -0.3794
     32 O          20.9882   71.8153    2.9797 O.3     1  UNL1       -0.3775
     33 C          21.4802   73.6694    4.4362 C.3     1  UNL1        0.1715
     34 C          22.5540   74.6866    4.8274 C.3     1  UNL1        0.1694
     35 C          22.0445   72.6414    3.4573 C.3     1  UNL1        0.1967
     36 C          23.2557   75.2562    3.5871 C.3     1  UNL1        0.1761
     37 C          22.7638   73.3125    2.2858 C.3     1  UNL1        0.2704
     38 H          20.6866   73.6441    6.2471 H       1  UNL1        0.2105
     39 H          21.4851   75.3577    6.3451 H       1  UNL1        0.2105
     40 H          20.5409   71.3960    3.7307 H       1  UNL1        0.2106
     41 O          24.0440   76.9872    5.0331 O.3     1  UNL1       -0.3794
     42 C          24.4349   76.1528    3.9583 C.3     1  UNL1        0.1693
     43 H          24.7848   77.5633    5.2803 H       1  UNL1        0.2105
@<TRIPOS>UNITY_ATOM_ATTR
2 1
charge -1
26 1
charge -1
@<TRIPOS>BOND
     1    25    28    1
     2    25    24    1
     3    25    26    1
     4    25    27    2
     5     1     4    1
     6     1    24    1
     7     1     2    1
     8     1     3    2
     9     6    11    1
    10     6    12    1
    11    29    36    1
    12    29    37    1
    13     7     9    1
    14     7    13    1
    15     8    10    1
    16     8    14    1
    17    28    37    1
    18     4     5    1
    19    30    33    1
    20    30    38    1
    21    31    34    1
    22    31    39    1
    23    32    35    1
    24    32    40    1
    25    41    42    1
    26    41    43    1
    27    15    19    2
    28    16    22    2
    29    17    12    1
    30    17    19   ar
    31    17    20   ar
    32    18    19   ar
    33    18    22   ar
    34    18    23    1
    35     9    10    1
    36     9    11    1
    37    10    12    1
    38    11     5    1
    39    33    34    1
    40    33    35    1
    41    34    36    1
    42    35    37    1
    43    36    42    1
    44    20    21   ar
    45    21    22   ar
@<TRIPOS>MOLECULE
*****
 43 45 0 0 0
SMALL
GASTEIGER

@<TRIPOS>ATOM
      1 P          23.0528   71.9775   -3.4404 P.3     1  UNL1        0.2189
      2 O          23.7568   72.9879   -4.4896 O.co2   1  UNL1       -0.4371
      3 O          23.7433   70.6560   -3.2724 O.2     1  UNL1       -0.5170
      4 O          21.5153   71.9085   -3.9396 O.3     1  UNL1       -0.3112
      5 C          20.7078   70.8323   -3.4952 C.3     1  UNL1        0.1811
      6 O          18.8623   71.9349   -4.5686 O.3     1  UNL1       -0.3308
      7 O          17.1471   70.7623   -2.4066 O.3     1  UNL1       -0.3794
      8 O          16.6712   69.0960   -4.5123 O.3     1  UNL1       -0.3779
      9 C          18.2817   70.1993   -3.0630 C.3     1  UNL1        0.1713
     10 C          17.9152   69.7648   -4.4668 C.3     1  UNL1        0.1895
     11 C          19.2763   71.3229   -3.3274 C.3     1  UNL1        0.1764
     12 C          17.8947   71.0889   -5.2113 C.3     1  UNL1        0.2383
     13 H          16.4979   70.0635   -2.2271 H       1  UNL1        0.2105
     14 H          16.7354   68.2599   -4.0249 H       1  UNL1        0.2106
     15 O          16.0504   70.5465   -7.2806 O.2     1  UNL1       -0.2464
     16 O          19.3635   70.5542  -10.4844 O.2     1  UNL1       -0.2670
     17 N          18.2479   70.9445   -6.5954 N.ar    1  UNL1       -0.2551
     18 N          17.7015   70.5510   -8.8742 N.ar    1  UNL1       -0.2743
     19 C          17.2456   70.6717   -7.5553 C.ar    1  UNL1        0.3323
     20 C          19.5755   71.0737   -6.9890 C.ar    1  UNL1        0.0869
     21 C          19.9940   70.9544   -8.2506 C.ar    1  UNL1        0.0795
     22 C          19.0101   70.6696   -9.3150 C.ar    1  UNL1        0.2626
     23 H          17.0210   70.3606   -9.5601 H       1  UNL1        0.1734
     24 O          22.9574   72.8629   -2.0914 O.3     1  UNL1       -0.2703
     25 P          22.5987   74.4233   -1.8689 P.3     1  UNL1        0.2208
     26 O          21.4464   74.6999   -2.9704 O.co2   1  UNL1       -0.4371
     27 O          23.7795   75.3457   -1.9630 O.2     1  UNL1       -0.5170
     28 O          21.8270   74.4671   -0.4520 O.3     1  UNL1       -0.2858
     29 O          21.2918   72.1839   -0.1100 O.3     1  UNL1       -0.3258
     30 O          19.9711   73.7173    3.4893 O.3     1  UNL1       -0.3794
     31 O          22.3704   72.1408    3.4147 O.3     1  UNL1       -0.3794
     32 O          19.5783   75.2219    1.0476 O.3     1  UNL1       -0.3775
     33 C          20.8282   73.6256    2.3481 C.3     1  UNL1        0.1715
     34 C          21.4526   72.2290    2.3283 C.3     1  UNL1        0.1694
     35 C          20.0039   73.8639    1.0843 C.3     1  UNL1        0.1967
     36 C          22.1710   71.9622    0.9988 C.3     1  UNL1        0.1761
     37 C          20.7956   73.5221   -0.1792 C.3     1  UNL1        0.2704
     38 H          20.4884   73.5675    4.2951 H       1  UNL1        0.2105
     39 H          21.9042   72.3118    4.2481 H       1  UNL1        0.2105
     40 H          19.0781   75.4257    1.8527 H       1  UNL1        0.2106
     41 O          21.5482   69.6768    0.6854 O.3     1  UNL1       -0.3794
     42 C          22.6653   70.5209    0.8949 C.3     1  UNL1        0.1693
     43 H          21.8476   68.7563    0.6170 H       1  UNL1        0.2105
@<TRIPOS>UNITY_ATOM_ATTR
2 1
charge -1
26 1
charge -1
@<TRIPOS>BOND
     1    25    28    1
     2    25    24    1
     3    25    26    1
     4    25    27    2
     5     1     4    1
     6     1    24    1
     7     1     2    1
     8     1     3    2
     9     6    11    1
    10     6    12    1
    11    29    36    1
    12    29    37    1
    13     7     9    1
    14     7    13    1
    15     8    10    1
    16     8    14    1
    17    28    37    1
    18     4     5    1
    19    30    33    1
    20    30    38    1
    21    31    34    1
    22    31    39    1
    23    32    35    1
    24    32    40    1
    25    41    42    1
    26    41    43    1
    27    15    19    2
    28    16    22    2
    29    17    12    1
    30    17    19   ar
    31    17    20   ar
    32    18    19   ar
    33    18    22   ar
    34    18    23    1
    35     9    10    1
    36     9    11    1
    37    10    12    1
    38    11     5    1
    39    33    34    1
    40    33    35    1
    41    34    36    1
    42    35    37    1
    43    36    42    1
    44    20    21   ar
    45    21    22   ar
@<TRIPOS>MOLECULE
*****
 43 45 0 0 0
SMALL
GASTEIGER

@<TRIPOS>ATOM
      1 P          21.8562   74.0571   -5.4150 P.3     1  UNL1        0.2189
      2 O          21.4909   75.4019   -6.2370 O.co2   1  UNL1       -0.4371
      3 O          22.3704   72.9228   -6.2518 O.2     1  UNL1       -0.5170
      4 O          20.5176   73.7489   -4.5599 O.3     1  UNL1       -0.3112
      5 C          20.4010   72.4920   -3.9162 C.3     1  UNL1        0.1811
      6 O          18.2288   72.2914   -4.9235 O.3     1  UNL1       -0.3308
      7 O          17.4281   70.7917   -2.4536 O.3     1  UNL1       -0.3794
      8 O          17.8495   68.7882   -4.2550 O.3     1  UNL1       -0.3779
      9 C          18.6751   70.7885   -3.1465 C.3     1  UNL1        0.1713
     10 C          18.5601   69.9967   -4.4324 C.3     1  UNL1        0.1895
     11 C          18.9285   72.1992   -3.6633 C.3     1  UNL1        0.1764
     12 C          17.8335   70.9742   -5.3404 C.3     1  UNL1        0.2383
     13 H          17.2448   69.9012   -2.1139 H       1  UNL1        0.2105
     14 H          18.3523   68.2001   -3.6701 H       1  UNL1        0.2106
     15 O          15.9712   70.4510   -7.3986 O.2     1  UNL1       -0.2464
     16 O          19.2774   70.3188  -10.6068 O.2     1  UNL1       -0.2670
     17 N          18.1801   70.7990   -6.7227 N.ar    1  UNL1       -0.2551
     18 N          17.6190   70.3858   -8.9944 N.ar    1  UNL1       -0.2743
     19 C          17.1689   70.5391   -7.6768 C.ar    1  UNL1        0.3323
     20 C          19.5099   70.8857   -7.1200 C.ar    1  UNL1        0.0869
     21 C          19.9228   70.7357   -8.3803 C.ar    1  UNL1        0.0795
     22 C          18.9295   70.4617   -9.4388 C.ar    1  UNL1        0.2626
     23 H          16.9322   70.2036   -9.6763 H       1  UNL1        0.1734
     24 O          22.8907   74.5874   -4.2918 O.3     1  UNL1       -0.2703
     25 P          23.9270   73.7895   -3.3419 P.3     1  UNL1        0.2208
     26 O          25.3654   74.3903   -3.7750 O.co2   1  UNL1       -0.4371
     27 O          23.8254   72.2948   -3.4394 O.2     1  UNL1       -0.5170
     28 O          23.6659   74.3827   -1.8637 O.3     1  UNL1       -0.2858
     29 O          21.6543   73.3443   -1.1622 O.3     1  UNL1       -0.3258
     30 O          22.4700   75.5593    2.2260 O.3     1  UNL1       -0.3794
     31 O          22.8204   72.7093    2.2767 O.3     1  UNL1       -0.3794
     32 O          22.9986   76.6767   -0.3916 O.3     1  UNL1       -0.3775
     33 C          22.7902   74.7760    1.0730 C.3     1  UNL1        0.1715
     34 C          22.1402   73.4001    1.2325 C.3     1  UNL1        0.1694
     35 C          22.2577   75.4810   -0.1731 C.3     1  UNL1        0.1967
     36 C          22.2126   72.5985   -0.0742 C.3     1  UNL1        0.1761
     37 C          22.3303   74.5793   -1.4067 C.3     1  UNL1        0.2704
     38 H          22.8057   75.1174    3.0206 H       1  UNL1        0.2105
     39 H          22.7677   73.2262    3.0959 H       1  UNL1        0.2105
     40 H          22.9445   77.2390    0.3963 H       1  UNL1        0.2106
     41 O          21.5737   70.7699    1.3247 O.3     1  UNL1       -0.3794
     42 C          21.4333   71.2882    0.0148 C.3     1  UNL1        0.1693
     43 H          21.0826   69.9360    1.3961 H       1  UNL1        0.2105
@<TRIPOS>UNITY_ATOM_ATTR
2 1
charge -1
26 1
charge -1
@<TRIPOS>BOND
     1    25    28    1
     2    25    24    1
     3    25    26    1
     4    25    27    2
     5     1     4    1
     6     1    24    1
     7     1     2    1
     8     1     3    2
     9     6    11    1
    10     6    12    1
    11    29    36    1
    12    29    37    1
    13     7     9    1
    14     7    13    1
    15     8    10    1
    16     8    14    1
    17    28    37    1
    18     4     5    1
    19    30    33    1
    20    30    38    1
    21    31    34    1
    22    31    39    1
    23    32    35    1
    24    32    40    1
    25    41    42    1
    26    41    43    1
    27    15    19    2
    28    16    22    2
    29    17    12    1
    30    17    19   ar
    31    17    20   ar
    32    18    19   ar
    33    18    22   ar
    34    18    23    1
    35     9    10    1
    36     9    11    1
    37    10    12    1
    38    11     5    1
    39    33    34    1
    40    33    35    1
    41    34    36    1
    42    35    37    1
    43    36    42    1
    44    20    21   ar
    45    21    22   ar
@<TRIPOS>MOLECULE
*****
 43 45 0 0 0
SMALL
GASTEIGER

@<TRIPOS>ATOM
      1 P          22.1194   73.5252   -5.4414 P.3     1  UNL1        0.2189
      2 O          22.2921   75.0526   -5.9459 O.co2   1  UNL1       -0.4371
      3 O          23.3758   72.8786   -4.9365 O.2     1  UNL1       -0.5170
      4 O          21.3991   72.7840   -6.6863 O.3     1  UNL1       -0.3112
      5 C          20.6243   73.5634   -7.5807 C.3     1  UNL1        0.1811
      6 O          19.8467   71.3308   -8.0104 O.3     1  UNL1       -0.3308
      7 O          18.2577   72.5177  -10.2592 O.3     1  UNL1       -0.3794
      8 O          16.3824   72.2116   -8.3032 O.3     1  UNL1       -0.3779
      9 C          18.5560   73.0674   -8.9770 C.3     1  UNL1        0.1713
     10 C          17.7275   72.3869   -7.9074 C.3     1  UNL1        0.1895
     11 C          19.9704   72.6427   -8.6020 C.3     1  UNL1        0.1764
     12 C          18.4617   71.0685   -7.7314 C.3     1  UNL1        0.2383
     13 H          17.3592   72.7758  -10.5203 H       1  UNL1        0.2105
     14 H          15.9586   73.0785   -8.4017 H       1  UNL1        0.2106
     15 O          16.1706   69.7601   -6.7229 O.2     1  UNL1       -0.2464
     16 O          18.1253   69.1232   -2.5980 O.2     1  UNL1       -0.2670
     17 N          18.3448   70.5503   -6.3976 N.ar    1  UNL1       -0.2551
     18 N          17.1458   69.4439   -4.6699 N.ar    1  UNL1       -0.2743
     19 C          17.1505   69.9111   -5.9904 C.ar    1  UNL1        0.3323
     20 C          19.4068   70.6779   -5.5089 C.ar    1  UNL1        0.0869
     21 C          19.3859   70.2280   -4.2526 C.ar    1  UNL1        0.0795
     22 C          18.1755   69.5479   -3.7482 C.ar    1  UNL1        0.2626
     23 H          16.3242   68.9955   -4.3640 H       1  UNL1        0.1734
     24 O          20.9335   73.6353   -4.3485 O.3     1  UNL1       -0.2703
     25 P          20.9574   74.0937   -2.7986 P.3     1  UNL1        0.2208
     26 O          19.4250   74.5294   -2.5168 O.co2   1  UNL1       -0.4371
     27 O          21.9707   75.1567   -2.4869 O.2     1  UNL1       -0.5170
     28 O          21.1502   72.7222   -1.9699 O.3     1  UNL1       -0.2858
     29 O          22.9016   73.2152   -0.4513 O.3     1  UNL1       -0.3258
     30 O          22.0707   69.3477    0.7330 O.3     1  UNL1       -0.3794
     31 O          21.3001   71.5427    2.4170 O.3     1  UNL1       -0.3794
     32 O          21.9905   70.0468   -2.0749 O.3     1  UNL1       -0.3775
     33 C          21.7612   70.6556    0.2441 C.3     1  UNL1        0.1715
     34 C          22.1806   71.6755    1.3046 C.3     1  UNL1        0.1694
     35 C          22.5198   70.8934   -1.0603 C.3     1  UNL1        0.1967
     36 C          22.1283   73.1053    0.7494 C.3     1  UNL1        0.1761
     37 C          22.4447   72.3571   -1.4985 C.3     1  UNL1        0.2704
     38 H          21.5918   69.1901    1.5608 H       1  UNL1        0.2105
     39 H          21.3423   70.6354    2.7578 H       1  UNL1        0.2105
     40 H          22.0439   69.1230   -1.7856 H       1  UNL1        0.2106
     41 O          23.2368   73.4244    2.8418 O.3     1  UNL1       -0.3794
     42 C          22.6921   74.1237    1.7379 C.3     1  UNL1        0.1693
     43 H          23.5997   74.0599    3.4791 H       1  UNL1        0.2105
@<TRIPOS>UNITY_ATOM_ATTR
2 1
charge -1
26 1
charge -1
@<TRIPOS>BOND
     1    25    28    1
     2    25    24    1
     3    25    26    1
     4    25    27    2
     5     1     4    1
     6     1    24    1
     7     1     2    1
     8     1     3    2
     9     6    11    1
    10     6    12    1
    11    29    36    1
    12    29    37    1
    13     7     9    1
    14     7    13    1
    15     8    10    1
    16     8    14    1
    17    28    37    1
    18     4     5    1
    19    30    33    1
    20    30    38    1
    21    31    34    1
    22    31    39    1
    23    32    35    1
    24    32    40    1
    25    41    42    1
    26    41    43    1
    27    15    19    2
    28    16    22    2
    29    17    12    1
    30    17    19   ar
    31    17    20   ar
    32    18    19   ar
    33    18    22   ar
    34    18    23    1
    35     9    10    1
    36     9    11    1
    37    10    12    1
    38    11     5    1
    39    33    34    1
    40    33    35    1
    41    34    36    1
    42    35    37    1
    43    36    42    1
    44    20    21   ar
    45    21    22   ar
@<TRIPOS>MOLECULE
*****
 43 45 0 0 0
SMALL
GASTEIGER

@<TRIPOS>ATOM
      1 P          23.6378   73.6789   -4.0353 P.3     1  UNL1        0.2189
      2 O          25.1462   74.2588   -3.9579 O.co2   1  UNL1       -0.4371
      3 O          23.4980   72.2272   -3.6825 O.2     1  UNL1       -0.5170
      4 O          23.1381   74.0931   -5.5174 O.3     1  UNL1       -0.3112
      5 C          22.0432   73.3929   -6.0820 C.3     1  UNL1        0.1811
      6 O          21.1902   72.7002   -8.2189 O.3     1  UNL1       -0.3308
      7 O          21.5793   75.5439   -9.0864 O.3     1  UNL1       -0.3794
      8 O          18.9000   75.4350   -8.5905 O.3     1  UNL1       -0.3779
      9 C          21.1703   75.0356   -7.8177 C.3     1  UNL1        0.1713
     10 C          19.7394   74.5441   -7.8846 C.3     1  UNL1        0.1895
     11 C          21.9382   73.7452   -7.5595 C.3     1  UNL1        0.1764
     12 C          19.8980   73.2077   -8.5895 C.3     1  UNL1        0.2383
     13 H          21.1025   76.3684   -9.2732 H       1  UNL1        0.2105
     14 H          18.8309   76.2701   -8.1020 H       1  UNL1        0.2106
     15 O          19.0822   71.0061  -10.1598 O.2     1  UNL1       -0.2464
     16 O          16.0376   69.6346   -6.9833 O.2     1  UNL1       -0.2670
     17 N          18.8943   72.2590   -8.1971 N.ar    1  UNL1       -0.2551
     18 N          17.5670   70.3249   -8.5768 N.ar    1  UNL1       -0.2743
     19 C          18.5575   71.1897   -9.0595 C.ar    1  UNL1        0.3323
     20 C          18.2558   72.3937   -6.9691 C.ar    1  UNL1        0.0869
     21 C          17.3123   71.5612   -6.5240 C.ar    1  UNL1        0.0795
     22 C          16.9022   70.4177   -7.3643 C.ar    1  UNL1        0.2626
     23 H          17.3158   69.5728   -9.1608 H       1  UNL1        0.1734
     24 O          22.8116   74.6864   -3.0785 O.3     1  UNL1       -0.2703
     25 P          22.9727   75.0293   -1.5071 P.3     1  UNL1        0.2208
     26 O          21.5965   75.8029   -1.1532 O.co2   1  UNL1       -0.4371
     27 O          24.2185   75.7959   -1.1691 O.2     1  UNL1       -0.5170
     28 O          22.8420   73.6034   -0.7623 O.3     1  UNL1       -0.2858
     29 O          20.8595   72.3142   -0.9185 O.3     1  UNL1       -0.3258
     30 O          22.3758   70.7694    2.5979 O.3     1  UNL1       -0.3794
     31 O          22.4423   69.1808    0.2063 O.3     1  UNL1       -0.3794
     32 O          22.6286   73.5978    2.0358 O.3     1  UNL1       -0.3775
     33 C          22.4452   71.3185    1.2792 C.3     1  UNL1        0.1715
     34 C          21.6906   70.3849    0.3306 C.3     1  UNL1        0.1694
     35 C          21.8111   72.7082    1.2830 C.3     1  UNL1        0.1967
     36 C          21.4920   71.0353   -1.0451 C.3     1  UNL1        0.1761
     37 C          21.6133   73.2427   -0.1365 C.3     1  UNL1        0.2704
     38 H          22.7772   69.8872    2.6024 H       1  UNL1        0.2105
     39 H          22.5610   68.7804    1.0819 H       1  UNL1        0.2105
     40 H          22.7460   73.2483    2.9325 H       1  UNL1        0.2106
     41 O          21.4392   69.3868   -2.7739 O.3     1  UNL1       -0.3794
     42 C          20.6064   70.1878   -1.9559 C.3     1  UNL1        0.1693
     43 H          20.8892   68.8417   -3.3587 H       1  UNL1        0.2105
@<TRIPOS>UNITY_ATOM_ATTR
2 1
charge -1
26 1
charge -1
@<TRIPOS>BOND
     1    25    28    1
     2    25    24    1
     3    25    26    1
     4    25    27    2
     5     1     4    1
     6     1    24    1
     7     1     2    1
     8     1     3    2
     9     6    11    1
    10     6    12    1
    11    29    36    1
    12    29    37    1
    13     7     9    1
    14     7    13    1
    15     8    10    1
    16     8    14    1
    17    28    37    1
    18     4     5    1
    19    30    33    1
    20    30    38    1
    21    31    34    1
    22    31    39    1
    23    32    35    1
    24    32    40    1
    25    41    42    1
    26    41    43    1
    27    15    19    2
    28    16    22    2
    29    17    12    1
    30    17    19   ar
    31    17    20   ar
    32    18    19   ar
    33    18    22   ar
    34    18    23    1
    35     9    10    1
    36     9    11    1
    37    10    12    1
    38    11     5    1
    39    33    34    1
    40    33    35    1
    41    34    36    1
    42    35    37    1
    43    36    42    1
    44    20    21   ar
    45    21    22   ar
@<TRIPOS>MOLECULE
*****
 43 45 0 0 0
SMALL
GASTEIGER

@<TRIPOS>ATOM
      1 P          21.5732   73.0236   -6.0784 P.3     1  UNL1        0.2189
      2 O          21.2810   74.4928   -5.4673 O.co2   1  UNL1       -0.4371
      3 O          22.7722   72.9378   -6.9764 O.2     1  UNL1       -0.5170
      4 O          20.1635   72.5929   -6.7454 O.3     1  UNL1       -0.3112
      5 C          19.7071   71.2639   -6.5627 C.3     1  UNL1        0.1811
      6 O          17.4909   70.9691   -7.4432 O.3     1  UNL1       -0.3308
      7 O          18.7659   71.0078  -10.1568 O.3     1  UNL1       -0.3794
      8 O          17.7563   73.5316   -9.9384 O.3     1  UNL1       -0.3779
      9 C          19.1098   71.7496   -8.9877 C.3     1  UNL1        0.1713
     10 C          18.0991   72.8517   -8.7480 C.3     1  UNL1        0.1895
     11 C          18.8906   70.8485   -7.7788 C.3     1  UNL1        0.1764
     12 C          16.9297   72.0835   -8.1561 C.3     1  UNL1        0.2383
     13 H          18.8982   71.5626  -10.9421 H       1  UNL1        0.2105
     14 H          18.5329   74.0048  -10.2758 H       1  UNL1        0.2106
     15 O          14.8898   73.8751   -8.9349 O.2     1  UNL1       -0.2464
     16 O          14.0332   75.0845   -4.5709 O.2     1  UNL1       -0.2670
     17 N          16.1571   72.8791   -7.2441 N.ar    1  UNL1       -0.2551
     18 N          14.4648   74.4757   -6.7613 N.ar    1  UNL1       -0.2743
     19 C          15.1567   73.7483   -7.7381 C.ar    1  UNL1        0.3323
     20 C          16.3945   72.7927   -5.8766 C.ar    1  UNL1        0.0869
     21 C          15.7268   73.4941   -4.9583 C.ar    1  UNL1        0.0795
     22 C          14.6650   74.4255   -5.3909 C.ar    1  UNL1        0.2626
     23 H          13.7634   75.0880   -7.0821 H       1  UNL1        0.1734
     24 O          21.6516   72.0909   -4.7605 O.3     1  UNL1       -0.2703
     25 P          22.7217   72.0520   -3.5496 P.3     1  UNL1        0.2208
     26 O          23.9007   73.0329   -4.0647 O.co2   1  UNL1       -0.4371
     27 O          23.1820   70.6719   -3.1791 O.2     1  UNL1       -0.5170
     28 O          22.0107   72.8645   -2.3499 O.3     1  UNL1       -0.2858
     29 O          21.0451   72.0603   -0.3405 O.3     1  UNL1       -0.3258
     30 O          18.4394   75.1652   -1.1281 O.3     1  UNL1       -0.3794
     31 O          20.3309   75.4115    1.0189 O.3     1  UNL1       -0.3794
     32 O          19.4622   73.5516   -3.3029 O.3     1  UNL1       -0.3775
     33 C          19.7062   74.5018   -1.1031 C.3     1  UNL1        0.1715
     34 C          20.0520   74.1832    0.3527 C.3     1  UNL1        0.1694
     35 C          19.6141   73.2189   -1.9271 C.3     1  UNL1        0.1967
     36 C          21.2600   73.2409    0.4417 C.3     1  UNL1        0.1761
     37 C          20.8439   72.3310   -1.7290 C.3     1  UNL1        0.2704
     38 H          18.4911   75.9809   -0.6071 H       1  UNL1        0.2105
     39 H          19.5604   75.9975    0.9550 H       1  UNL1        0.2105
     40 H          18.6802   74.1135   -3.4151 H       1  UNL1        0.2106
     41 O          21.3347   71.3833    1.9425 O.3     1  UNL1       -0.3794
     42 C          21.5251   72.7845    1.8747 C.3     1  UNL1        0.1693
     43 H          21.5003   71.0786    2.8489 H       1  UNL1        0.2105
@<TRIPOS>UNITY_ATOM_ATTR
2 1
charge -1
26 1
charge -1
@<TRIPOS>BOND
     1    25    28    1
     2    25    24    1
     3    25    26    1
     4    25    27    2
     5     1     4    1
     6     1    24    1
     7     1     2    1
     8     1     3    2
     9     6    11    1
    10     6    12    1
    11    29    36    1
    12    29    37    1
    13     7     9    1
    14     7    13    1
    15     8    10    1
    16     8    14    1
    17    28    37    1
    18     4     5    1
    19    30    33    1
    20    30    38    1
    21    31    34    1
    22    31    39    1
    23    32    35    1
    24    32    40    1
    25    41    42    1
    26    41    43    1
    27    15    19    2
    28    16    22    2
    29    17    12    1
    30    17    19   ar
    31    17    20   ar
    32    18    19   ar
    33    18    22   ar
    34    18    23    1
    35     9    10    1
    36     9    11    1
    37    10    12    1
    38    11     5    1
    39    33    34    1
    40    33    35    1
    41    34    36    1
    42    35    37    1
    43    36    42    1
    44    20    21   ar
    45    21    22   ar
@<TRIPOS>MOLECULE
*****
 43 45 0 0 0
SMALL
GASTEIGER

@<TRIPOS>ATOM
      1 P          22.7527   71.9594   -3.2800 P.3     1  UNL1        0.2189
      2 O          23.7976   72.9448   -4.0248 O.co2   1  UNL1       -0.4371
      3 O          23.1446   70.5111   -3.2698 O.2     1  UNL1       -0.5170
      4 O          21.3334   72.2984   -3.9791 O.3     1  UNL1       -0.3112
      5 C          20.5457   71.2254   -4.4650 C.3     1  UNL1        0.1811
      6 O          18.3193   71.8621   -3.8236 O.3     1  UNL1       -0.3308
      7 O          18.1977   69.2519   -2.3529 O.3     1  UNL1       -0.3794
      8 O          16.8027   68.7146   -4.6337 O.3     1  UNL1       -0.3779
      9 C          18.8313   69.5597   -3.5936 C.3     1  UNL1        0.1713
     10 C          17.7960   69.7181   -4.6876 C.3     1  UNL1        0.1895
     11 C          19.4039   70.9679   -3.4913 C.3     1  UNL1        0.1764
     12 C          17.2434   71.1038   -4.4002 C.3     1  UNL1        0.2383
     13 H          17.8245   68.3569   -2.3940 H       1  UNL1        0.2105
     14 H          17.2036   67.8520   -4.8233 H       1  UNL1        0.2106
     15 O          18.1321   70.4932   -7.0108 O.2     1  UNL1       -0.2464
     16 O          15.4297   73.7231   -8.8834 O.2     1  UNL1       -0.2670
     17 N          16.7884   71.7692   -5.5883 N.ar    1  UNL1       -0.2551
     18 N          16.7857   72.1018   -7.9411 N.ar    1  UNL1       -0.2743
     19 C          17.2985   71.3873   -6.8510 C.ar    1  UNL1        0.3323
     20 C          15.8465   72.7879   -5.4945 C.ar    1  UNL1        0.0869
     21 C          15.3686   73.4604   -6.5436 C.ar    1  UNL1        0.0795
     22 C          15.8498   73.1231   -7.8988 C.ar    1  UNL1        0.2626
     23 H          17.1269   71.8533   -8.8309 H       1  UNL1        0.1734
     24 O          22.6048   72.6267   -1.8152 O.3     1  UNL1       -0.2703
     25 P          21.5320   72.3676   -0.6341 P.3     1  UNL1        0.2208
     26 O          21.5440   70.7582   -0.4685 O.co2   1  UNL1       -0.4371
     27 O          20.1747   72.9531   -0.8962 O.2     1  UNL1       -0.5170
     28 O          22.2524   72.9200    0.7005 O.3     1  UNL1       -0.2858
     29 O          21.3202   74.3545    2.3405 O.3     1  UNL1       -0.3258
     30 O          25.2624   75.5612    2.5723 O.3     1  UNL1       -0.3794
     31 O          24.1320   73.9939    4.6969 O.3     1  UNL1       -0.3794
     32 O          24.0992   74.9141    0.0018 O.3     1  UNL1       -0.3775
     33 C          24.1940   74.6279    2.3914 C.3     1  UNL1        0.1715
     34 C          23.3552   74.6054    3.6708 C.3     1  UNL1        0.1694
     35 C          23.3449   75.0659    1.1995 C.3     1  UNL1        0.1967
     36 C          22.0452   73.8339    3.4608 C.3     1  UNL1        0.1761
     37 C          22.0424   74.2687    1.1105 C.3     1  UNL1        0.2704
     38 H          25.8056   75.2886    3.3273 H       1  UNL1        0.2105
     39 H          24.9565   74.4904    4.8191 H       1  UNL1        0.2105
     40 H          24.9210   75.4237    0.0705 H       1  UNL1        0.2106
     41 O          21.5111   72.9483    5.6147 O.3     1  UNL1       -0.3794
     42 C          21.1228   73.9324    4.6739 C.3     1  UNL1        0.1693
     43 H          20.9329   72.9994    6.3924 H       1  UNL1        0.2105
@<TRIPOS>UNITY_ATOM_ATTR
2 1
charge -1
26 1
charge -1
@<TRIPOS>BOND
     1    25    28    1
     2    25    24    1
     3    25    26    1
     4    25    27    2
     5     1     4    1
     6     1    24    1
     7     1     2    1
     8     1     3    2
     9     6    11    1
    10     6    12    1
    11    29    36    1
    12    29    37    1
    13     7     9    1
    14     7    13    1
    15     8    10    1
    16     8    14    1
    17    28    37    1
    18     4     5    1
    19    30    33    1
    20    30    38    1
    21    31    34    1
    22    31    39    1
    23    32    35    1
    24    32    40    1
    25    41    42    1
    26    41    43    1
    27    15    19    2
    28    16    22    2
    29    17    12    1
    30    17    19   ar
    31    17    20   ar
    32    18    19   ar
    33    18    22   ar
    34    18    23    1
    35     9    10    1
    36     9    11    1
    37    10    12    1
    38    11     5    1
    39    33    34    1
    40    33    35    1
    41    34    36    1
    42    35    37    1
    43    36    42    1
    44    20    21   ar
    45    21    22   ar
@<TRIPOS>MOLECULE
*****
 43 45 0 0 0
SMALL
GASTEIGER

@<TRIPOS>ATOM
      1 P          21.5905   73.0370   -6.1999 P.3     1  UNL1        0.2189
      2 O          21.2880   74.5237   -5.6380 O.co2   1  UNL1       -0.4371
      3 O          22.7780   72.9335   -7.1114 O.2     1  UNL1       -0.5170
      4 O          20.1773   72.5652   -6.8308 O.3     1  UNL1       -0.3112
      5 C          19.7868   71.2117   -6.6777 C.3     1  UNL1        0.1811
      6 O          17.5848   70.9122   -7.5918 O.3     1  UNL1       -0.3308
      7 O          18.9054   70.9157  -10.2838 O.3     1  UNL1       -0.3794
      8 O          17.8992   73.4445  -10.1120 O.3     1  UNL1       -0.3779
      9 C          19.2316   71.6703   -9.1179 C.3     1  UNL1        0.1713
     10 C          18.2201   72.7777   -8.9082 C.3     1  UNL1        0.1895
     11 C          18.9896   70.7841   -7.9024 C.3     1  UNL1        0.1764
     12 C          17.0388   72.0195   -8.3270 C.3     1  UNL1        0.2383
     13 H          19.0523   71.4608  -11.0732 H       1  UNL1        0.2105
     14 H          18.6826   73.9116  -10.4418 H       1  UNL1        0.2106
     15 O          15.0312   73.8222   -9.1623 O.2     1  UNL1       -0.2464
     16 O          14.0901   75.0692   -4.8264 O.2     1  UNL1       -0.2670
     17 N          16.2532   72.8278   -7.4376 N.ar    1  UNL1       -0.2551
     18 N          14.5641   74.4415   -7.0027 N.ar    1  UNL1       -0.2743
     19 C          15.2710   73.7016   -7.9592 C.ar    1  UNL1        0.3323
     20 C          16.4601   72.7490   -6.0647 C.ar    1  UNL1        0.0869
     21 C          15.7784   73.4624   -5.1659 C.ar    1  UNL1        0.0795
     22 C          14.7340   74.3992   -5.6279 C.ar    1  UNL1        0.2626
     23 H          13.8749   75.0572   -7.3429 H       1  UNL1        0.1734
     24 O          21.6991   72.1536   -4.8506 O.3     1  UNL1       -0.2703
     25 P          22.7727   72.1883   -3.6426 P.3     1  UNL1        0.2208
     26 O          23.8934   73.2282   -4.1719 O.co2   1  UNL1       -0.4371
     27 O          23.3108   70.8403   -3.2587 O.2     1  UNL1       -0.5170
     28 O          22.0200   72.9725   -2.4495 O.3     1  UNL1       -0.2858
     29 O          19.9949   72.7381   -1.2410 O.3     1  UNL1       -0.3258
     30 O          20.1540   69.0023   -2.9929 O.3     1  UNL1       -0.3794
     31 O          18.2407   70.9278   -3.9307 O.3     1  UNL1       -0.3794
     32 O          22.5833   70.2543   -2.0386 O.3     1  UNL1       -0.3775
     33 C          20.3484   70.4174   -2.9218 C.3     1  UNL1        0.1715
     34 C          18.9834   71.0796   -2.7242 C.3     1  UNL1        0.1694
     35 C          21.2751   70.7357   -1.7499 C.3     1  UNL1        0.1967
     36 C          19.1344   72.5659   -2.3731 C.3     1  UNL1        0.1761
     37 C          21.3157   72.2358   -1.4533 C.3     1  UNL1        0.2704
     38 H          19.5668   68.7934   -3.7353 H       1  UNL1        0.2105
     39 H          18.1530   69.9849   -4.1414 H       1  UNL1        0.2105
     40 H          22.5441   69.3036   -2.2243 H       1  UNL1        0.2106
     41 O          17.9280   73.8615   -0.7685 O.3     1  UNL1       -0.3794
     42 C          17.7955   73.2085   -2.0176 C.3     1  UNL1        0.1693
     43 H          17.0834   74.2754   -0.5295 H       1  UNL1        0.2105
@<TRIPOS>UNITY_ATOM_ATTR
2 1
charge -1
26 1
charge -1
@<TRIPOS>BOND
     1    25    28    1
     2    25    24    1
     3    25    26    1
     4    25    27    2
     5     1     4    1
     6     1    24    1
     7     1     2    1
     8     1     3    2
     9     6    11    1
    10     6    12    1
    11    29    36    1
    12    29    37    1
    13     7     9    1
    14     7    13    1
    15     8    10    1
    16     8    14    1
    17    28    37    1
    18     4     5    1
    19    30    33    1
    20    30    38    1
    21    31    34    1
    22    31    39    1
    23    32    35    1
    24    32    40    1
    25    41    42    1
    26    41    43    1
    27    15    19    2
    28    16    22    2
    29    17    12    1
    30    17    19   ar
    31    17    20   ar
    32    18    19   ar
    33    18    22   ar
    34    18    23    1
    35     9    10    1
    36     9    11    1
    37    10    12    1
    38    11     5    1
    39    33    34    1
    40    33    35    1
    41    34    36    1
    42    35    37    1
    43    36    42    1
    44    20    21   ar
    45    21    22   ar
@<TRIPOS>MOLECULE
*****
 43 45 0 0 0
SMALL
GASTEIGER

@<TRIPOS>ATOM
      1 P          20.4493   73.1022   -5.6847 P.3     1  UNL1        0.2189
      2 O          19.1729   74.0893   -5.8021 O.co2   1  UNL1       -0.4371
      3 O          21.7784   73.7929   -5.5952 O.2     1  UNL1       -0.5170
      4 O          20.2689   72.0843   -6.9293 O.3     1  UNL1       -0.3112
      5 C          19.4850   70.9189   -6.7415 C.3     1  UNL1        0.1811
      6 O          17.3118   70.8001   -7.7599 O.3     1  UNL1       -0.3308
      7 O          18.7437   70.9329  -10.3910 O.3     1  UNL1       -0.3794
      8 O          17.8540   73.4905  -10.0687 O.3     1  UNL1       -0.3779
      9 C          19.0563   71.5826   -9.1600 C.3     1  UNL1        0.1713
     10 C          18.0912   72.7220   -8.9069 C.3     1  UNL1        0.1895
     11 C          18.7207   70.6234   -8.0248 C.3     1  UNL1        0.1764
     12 C          16.8513   71.9847   -8.4303 C.3     1  UNL1        0.2383
     13 H          18.9500   71.5261  -11.1310 H       1  UNL1        0.2105
     14 H          18.6723   73.9398  -10.3320 H       1  UNL1        0.2106
     15 O          15.0264   73.9976   -9.2023 O.2     1  UNL1       -0.2464
     16 O          13.9044   74.9141   -4.8271 O.2     1  UNL1       -0.2670
     17 N          16.0686   72.7648   -7.5137 N.ar    1  UNL1       -0.2551
     18 N          14.4691   74.4522   -7.0232 N.ar    1  UNL1       -0.2743
     19 C          15.1822   73.7517   -8.0044 C.ar    1  UNL1        0.3323
     20 C          16.1839   72.5477   -6.1450 C.ar    1  UNL1        0.0869
     21 C          15.4977   73.2250   -5.2223 C.ar    1  UNL1        0.0795
     22 C          14.5499   74.2738   -5.6512 C.ar    1  UNL1        0.2626
     23 H          13.8458   75.1449   -7.3415 H       1  UNL1        0.1734
     24 O          20.0815   72.1828   -4.4071 O.3     1  UNL1       -0.2703
     25 P          19.0959   72.4515   -3.1544 P.3     1  UNL1        0.2208
     26 O          17.8986   71.3892   -3.3898 O.co2   1  UNL1       -0.4371
     27 O          18.6424   73.8766   -3.0228 O.2     1  UNL1       -0.5170
     28 O          19.8984   71.8841   -1.8741 O.3     1  UNL1       -0.2858
     29 O          21.7269   73.0728   -0.9467 O.3     1  UNL1       -0.3258
     30 O          22.6480   69.2828    0.4091 O.3     1  UNL1       -0.3794
     31 O          21.6801   71.2544    2.2595 O.3     1  UNL1       -0.3794
     32 O          21.5409   69.6386   -2.2418 O.3     1  UNL1       -0.3775
     33 C          21.7828   70.3612    0.0431 C.3     1  UNL1        0.1715
     34 C          22.1078   71.5608    0.9354 C.3     1  UNL1        0.1694
     35 C          22.0110   70.7072   -1.4271 C.3     1  UNL1        0.1967
     36 C          21.4122   72.8318    0.4298 C.3     1  UNL1        0.1761
     37 C          21.3165   72.0141   -1.8141 C.3     1  UNL1        0.2704
     38 H          22.5078   69.0579    1.3415 H       1  UNL1        0.2105
     39 H          22.1263   70.4496    2.5667 H       1  UNL1        0.2105
     40 H          21.9884   68.8171   -1.9872 H       1  UNL1        0.2106
     41 O          23.0522   73.7733    1.8902 O.3     1  UNL1       -0.3794
     42 C          21.8467   74.0705    1.2102 C.3     1  UNL1        0.1693
     43 H          23.3409   74.5528    2.3911 H       1  UNL1        0.2105
@<TRIPOS>UNITY_ATOM_ATTR
2 1
charge -1
26 1
charge -1
@<TRIPOS>BOND
     1    25    28    1
     2    25    24    1
     3    25    26    1
     4    25    27    2
     5     1     4    1
     6     1    24    1
     7     1     2    1
     8     1     3    2
     9     6    11    1
    10     6    12    1
    11    29    36    1
    12    29    37    1
    13     7     9    1
    14     7    13    1
    15     8    10    1
    16     8    14    1
    17    28    37    1
    18     4     5    1
    19    30    33    1
    20    30    38    1
    21    31    34    1
    22    31    39    1
    23    32    35    1
    24    32    40    1
    25    41    42    1
    26    41    43    1
    27    15    19    2
    28    16    22    2
    29    17    12    1
    30    17    19   ar
    31    17    20   ar
    32    18    19   ar
    33    18    22   ar
    34    18    23    1
    35     9    10    1
    36     9    11    1
    37    10    12    1
    38    11     5    1
    39    33    34    1
    40    33    35    1
    41    34    36    1
    42    35    37    1
    43    36    42    1
    44    20    21   ar
    45    21    22   ar
@<TRIPOS>MOLECULE
*****
 43 45 0 0 0
SMALL
GASTEIGER

@<TRIPOS>ATOM
      1 P          21.8737   73.8070   -5.8194 P.3     1  UNL1        0.2189
      2 O          21.5793   75.2849   -6.4082 O.co2   1  UNL1       -0.4371
      3 O          22.7457   72.9431   -6.6825 O.2     1  UNL1       -0.5170
      4 O          20.4022   73.2179   -5.4949 O.3     1  UNL1       -0.3112
      5 C          19.7416   73.6576   -4.3209 C.3     1  UNL1        0.1811
      6 O          18.3870   74.4139   -6.1558 O.3     1  UNL1       -0.3308
      7 O          16.1412   74.5981   -4.1777 O.3     1  UNL1       -0.3794
      8 O          15.6107   72.2519   -5.4623 O.3     1  UNL1       -0.3779
      9 C          17.1983   73.6433   -4.2561 C.3     1  UNL1        0.1713
     10 C          16.9552   72.6826   -5.4013 C.3     1  UNL1        0.1895
     11 C          18.4557   74.3719   -4.7136 C.3     1  UNL1        0.1764
     12 C          17.3563   73.5188   -6.6046 C.3     1  UNL1        0.2383
     13 H          15.3274   74.1562   -3.8870 H       1  UNL1        0.2105
     14 H          15.4041   71.7242   -4.6752 H       1  UNL1        0.2106
     15 O          17.7957   74.4671   -9.2287 O.2     1  UNL1       -0.2464
     16 O          19.3270   70.3600  -10.6528 O.2     1  UNL1       -0.2670
     17 N          17.8695   72.7190   -7.6809 N.ar    1  UNL1       -0.2551
     18 N          18.5580   72.4213   -9.9356 N.ar    1  UNL1       -0.2743
     19 C          18.0521   73.2913   -8.9613 C.ar    1  UNL1        0.3323
     20 C          18.1862   71.3828   -7.4613 C.ar    1  UNL1        0.0869
     21 C          18.6665   70.5662   -8.4014 C.ar    1  UNL1        0.0795
     22 C          18.8867   71.0856   -9.7666 C.ar    1  UNL1        0.2626
     23 H          18.6931   72.7980  -10.8354 H       1  UNL1        0.1734
     24 O          22.4743   74.1140   -4.3504 O.3     1  UNL1       -0.2703
     25 P          23.5004   73.2739   -3.4262 P.3     1  UNL1        0.2208
     26 O          24.9192   74.0066   -3.6863 O.co2   1  UNL1       -0.4371
     27 O          23.5067   71.7976   -3.6990 O.2     1  UNL1       -0.5170
     28 O          23.1071   73.6727   -1.9125 O.3     1  UNL1       -0.2858
     29 O          21.4196   72.1232   -1.3059 O.3     1  UNL1       -0.3258
     30 O          21.6676   74.2455    2.2275 O.3     1  UNL1       -0.3794
     31 O          22.7170   71.5752    2.1008 O.3     1  UNL1       -0.3794
     32 O          21.8938   75.6276   -0.3059 O.3     1  UNL1       -0.3775
     33 C          22.1695   73.6434    1.0313 C.3     1  UNL1        0.1715
     34 C          21.8832   72.1417    1.0938 C.3     1  UNL1        0.1694
     35 C          21.4746   74.2735   -0.1743 C.3     1  UNL1        0.1967
     36 C          22.1492   71.4703   -0.2603 C.3     1  UNL1        0.1761
     37 C          21.7660   73.5007   -1.4619 C.3     1  UNL1        0.2704
     38 H          22.1051   73.8502    2.9968 H       1  UNL1        0.2105
     39 H          22.5395   72.0082    2.9506 H       1  UNL1        0.2105
     40 H          21.7036   76.1061    0.5155 H       1  UNL1        0.2106
     41 O          22.6994   69.2479    0.4232 O.3     1  UNL1       -0.3794
     42 C          21.7210   70.0044   -0.2657 C.3     1  UNL1        0.1693
     43 H          22.4399   68.3128    0.4280 H       1  UNL1        0.2105
@<TRIPOS>UNITY_ATOM_ATTR
2 1
charge -1
26 1
charge -1
@<TRIPOS>BOND
     1    25    28    1
     2    25    24    1
     3    25    26    1
     4    25    27    2
     5     1     4    1
     6     1    24    1
     7     1     2    1
     8     1     3    2
     9     6    11    1
    10     6    12    1
    11    29    36    1
    12    29    37    1
    13     7     9    1
    14     7    13    1
    15     8    10    1
    16     8    14    1
    17    28    37    1
    18     4     5    1
    19    30    33    1
    20    30    38    1
    21    31    34    1
    22    31    39    1
    23    32    35    1
    24    32    40    1
    25    41    42    1
    26    41    43    1
    27    15    19    2
    28    16    22    2
    29    17    12    1
    30    17    19   ar
    31    17    20   ar
    32    18    19   ar
    33    18    22   ar
    34    18    23    1
    35     9    10    1
    36     9    11    1
    37    10    12    1
    38    11     5    1
    39    33    34    1
    40    33    35    1
    41    34    36    1
    42    35    37    1
    43    36    42    1
    44    20    21   ar
    45    21    22   ar
@<TRIPOS>MOLECULE
*****
 43 45 0 0 0
SMALL
GASTEIGER

@<TRIPOS>ATOM
      1 P          19.5814   69.3764   -3.6323 P.3     1  UNL1        0.2189
      2 O          19.7134   69.8555   -5.1720 O.co2   1  UNL1       -0.4371
      3 O          19.0040   68.0045   -3.4428 O.2     1  UNL1       -0.5170
      4 O          18.7746   70.5832   -2.9178 O.3     1  UNL1       -0.3112
      5 C          17.5016   70.9403   -3.4273 C.3     1  UNL1        0.1811
      6 O          18.3040   72.7223   -4.8253 O.3     1  UNL1       -0.3308
      7 O          16.0478   74.3566   -3.7166 O.3     1  UNL1       -0.3794
      8 O          15.0924   73.6026   -6.1569 O.3     1  UNL1       -0.3779
      9 C          16.0847   72.9655   -4.0308 C.3     1  UNL1        0.1713
     10 C          16.0420   72.7639   -5.5311 C.3     1  UNL1        0.1895
     11 C          17.4715   72.4416   -3.6788 C.3     1  UNL1        0.1764
     12 C          17.4691   73.0941   -5.9342 C.3     1  UNL1        0.2383
     13 H          15.1715   74.7136   -3.9326 H       1  UNL1        0.2105
     14 H          14.2006   73.3531   -5.8686 H       1  UNL1        0.2106
     15 O          16.3473   70.6444   -6.7817 O.2     1  UNL1       -0.2464
     16 O          19.1679   70.4006  -10.4185 O.2     1  UNL1       -0.2670
     17 N          17.8909   72.3687   -7.0992 N.ar    1  UNL1       -0.2551
     18 N          17.7525   70.5251   -8.5919 N.ar    1  UNL1       -0.2743
     19 C          17.2627   71.1473   -7.4365 C.ar    1  UNL1        0.3323
     20 C          18.9165   72.8696   -7.8937 C.ar    1  UNL1        0.0869
     21 C          19.3729   72.2634   -8.9917 C.ar    1  UNL1        0.0795
     22 C          18.7704   70.9824   -9.4138 C.ar    1  UNL1        0.2626
     23 H          17.3302   69.6726   -8.8462 H       1  UNL1        0.1734
     24 O          21.0842   69.5581   -3.0651 O.3     1  UNL1       -0.2703
     25 P          22.0206   70.8698   -2.9410 P.3     1  UNL1        0.2208
     26 O          21.3455   71.9076   -3.9825 O.co2   1  UNL1       -0.4371
     27 O          23.4792   70.6098   -3.1837 O.2     1  UNL1       -0.5170
     28 O          21.6827   71.4766   -1.4841 O.3     1  UNL1       -0.2858
     29 O          23.2589   72.8927   -0.4224 O.3     1  UNL1       -0.3258
     30 O          21.0842   71.7264    2.8885 O.3     1  UNL1       -0.3794
     31 O          20.8103   74.4025    1.8827 O.3     1  UNL1       -0.3794
     32 O          21.6398   69.8210    0.7813 O.3     1  UNL1       -0.3775
     33 C          21.2790   72.0856    1.5179 C.3     1  UNL1        0.1715
     34 C          21.8400   73.5082    1.4700 C.3     1  UNL1        0.1694
     35 C          22.2556   71.1008    0.8777 C.3     1  UNL1        0.1967
     36 C          22.3240   73.8656    0.0583 C.3     1  UNL1        0.1761
     37 C          22.7120   71.5750   -0.5032 C.3     1  UNL1        0.2704
     38 H          20.4648   72.3476    3.3007 H       1  UNL1        0.2105
     39 H          20.5132   74.1656    2.7754 H       1  UNL1        0.2105
     40 H          21.3556   69.5318    1.6619 H       1  UNL1        0.2106
     41 O          24.1832   75.1469    0.8398 O.3     1  UNL1       -0.3794
     42 C          23.0303   75.2191    0.0214 C.3     1  UNL1        0.1693
     43 H          24.6431   76.0013    0.8257 H       1  UNL1        0.2105
@<TRIPOS>UNITY_ATOM_ATTR
2 1
charge -1
26 1
charge -1
@<TRIPOS>BOND
     1    25    28    1
     2    25    24    1
     3    25    26    1
     4    25    27    2
     5     1     4    1
     6     1    24    1
     7     1     2    1
     8     1     3    2
     9     6    11    1
    10     6    12    1
    11    29    36    1
    12    29    37    1
    13     7     9    1
    14     7    13    1
    15     8    10    1
    16     8    14    1
    17    28    37    1
    18     4     5    1
    19    30    33    1
    20    30    38    1
    21    31    34    1
    22    31    39    1
    23    32    35    1
    24    32    40    1
    25    41    42    1
    26    41    43    1
    27    15    19    2
    28    16    22    2
    29    17    12    1
    30    17    19   ar
    31    17    20   ar
    32    18    19   ar
    33    18    22   ar
    34    18    23    1
    35     9    10    1
    36     9    11    1
    37    10    12    1
    38    11     5    1
    39    33    34    1
    40    33    35    1
    41    34    36    1
    42    35    37    1
    43    36    42    1
    44    20    21   ar
    45    21    22   ar
@<TRIPOS>MOLECULE
*****
 43 45 0 0 0
SMALL
GASTEIGER

@<TRIPOS>ATOM
      1 P          21.3740   70.9135   -2.2513 P.3     1  UNL1        0.2189
      2 O          20.9166   70.0879   -0.9372 O.co2   1  UNL1       -0.4371
      3 O          22.5657   70.3520   -2.9696 O.2     1  UNL1       -0.5170
      4 O          21.5255   72.4346   -1.7212 O.3     1  UNL1       -0.3112
      5 C          22.4072   72.6898   -0.6417 C.3     1  UNL1        0.1811
      6 O          21.5215   74.7648    0.1849 O.3     1  UNL1       -0.3308
      7 O          24.2952   75.8590   -0.1317 O.3     1  UNL1       -0.3794
      8 O          24.1551   75.3598    2.5456 O.3     1  UNL1       -0.3779
      9 C          23.8804   74.5539    0.2682 C.3     1  UNL1        0.1713
     10 C          23.3469   74.5829    1.6853 C.3     1  UNL1        0.1895
     11 C          22.6361   74.1910   -0.5327 C.3     1  UNL1        0.1764
     12 C          21.9626   75.1772    1.4888 C.3     1  UNL1        0.2383
     13 H          25.0888   76.1126    0.3661 H       1  UNL1        0.2105
     14 H          25.0248   74.9405    2.6385 H       1  UNL1        0.2106
     15 O          21.9800   72.5847    2.6100 O.2     1  UNL1       -0.2464
     16 O          18.3052   73.4977    5.2374 O.2     1  UNL1       -0.2670
     17 N          21.0223   74.7107    2.4683 N.ar    1  UNL1       -0.2551
     18 N          20.1504   73.0415    3.9175 N.ar    1  UNL1       -0.2743
     19 C          21.1178   73.3904    2.9665 C.ar    1  UNL1        0.3323
     20 C          20.0195   75.5589    2.9253 C.ar    1  UNL1        0.0869
     21 C          19.1038   75.2104    3.8316 C.ar    1  UNL1        0.0795
     22 C          19.1333   73.8484    4.4025 C.ar    1  UNL1        0.2626
     23 H          20.1970   72.1264    4.2783 H       1  UNL1        0.1734
     24 O          20.0212   70.9695   -3.1344 O.3     1  UNL1       -0.2703
     25 P          19.1563   69.7927   -3.8273 P.3     1  UNL1        0.2208
     26 O          17.6698   70.0255   -3.2328 O.co2   1  UNL1       -0.4371
     27 O          19.7039   68.4130   -3.6031 O.2     1  UNL1       -0.5170
     28 O          19.0472   70.2252   -5.3785 O.3     1  UNL1       -0.2858
     29 O          19.6693   72.1880   -6.5520 O.3     1  UNL1       -0.3258
     30 O          16.0532   71.4339   -8.3976 O.3     1  UNL1       -0.3794
     31 O          18.4996   70.9697   -9.8286 O.3     1  UNL1       -0.3794
     32 O          16.3478   70.9714   -5.5553 O.3     1  UNL1       -0.3775
     33 C          17.2911   71.0921   -7.7682 C.3     1  UNL1        0.1715
     34 C          18.4311   71.6853   -8.5984 C.3     1  UNL1        0.1694
     35 C          17.3047   71.6623   -6.3511 C.3     1  UNL1        0.1967
     36 C          19.7679   71.5916   -7.8505 C.3     1  UNL1        0.1761
     37 C          18.6929   71.5638   -5.7159 C.3     1  UNL1        0.2704
     38 H          16.0379   71.0743   -9.2976 H       1  UNL1        0.2105
     39 H          17.6491   71.0364  -10.2906 H       1  UNL1        0.2105
     40 H          15.4733   71.0415   -5.9678 H       1  UNL1        0.2106
     41 O          22.0439   72.3145   -7.7713 O.3     1  UNL1       -0.3794
     42 C          20.8894   72.3174   -8.5907 C.3     1  UNL1        0.1693
     43 H          22.7661   72.7729   -8.2297 H       1  UNL1        0.2105
@<TRIPOS>UNITY_ATOM_ATTR
2 1
charge -1
26 1
charge -1
@<TRIPOS>BOND
     1    25    28    1
     2    25    24    1
     3    25    26    1
     4    25    27    2
     5     1     4    1
     6     1    24    1
     7     1     2    1
     8     1     3    2
     9     6    11    1
    10     6    12    1
    11    29    36    1
    12    29    37    1
    13     7     9    1
    14     7    13    1
    15     8    10    1
    16     8    14    1
    17    28    37    1
    18     4     5    1
    19    30    33    1
    20    30    38    1
    21    31    34    1
    22    31    39    1
    23    32    35    1
    24    32    40    1
    25    41    42    1
    26    41    43    1
    27    15    19    2
    28    16    22    2
    29    17    12    1
    30    17    19   ar
    31    17    20   ar
    32    18    19   ar
    33    18    22   ar
    34    18    23    1
    35     9    10    1
    36     9    11    1
    37    10    12    1
    38    11     5    1
    39    33    34    1
    40    33    35    1
    41    34    36    1
    42    35    37    1
    43    36    42    1
    44    20    21   ar
    45    21    22   ar
@<TRIPOS>MOLECULE
*****
 43 45 0 0 0
SMALL
GASTEIGER

@<TRIPOS>ATOM
      1 P          22.2650   71.3101   -2.6202 P.3     1  UNL1        0.2189
      2 O          21.6981   70.5005   -1.3394 O.co2   1  UNL1       -0.4371
      3 O          23.4858   70.7139   -3.2572 O.2     1  UNL1       -0.5170
      4 O          22.4236   72.8275   -2.0816 O.3     1  UNL1       -0.3112
      5 C          23.4609   73.6303   -2.6175 C.3     1  UNL1        0.1811
      6 O          25.0527   74.8459   -1.2901 O.3     1  UNL1       -0.3308
      7 O          23.1316   77.1439   -1.4282 O.3     1  UNL1       -0.3794
      8 O          24.9973   77.8156   -3.3002 O.3     1  UNL1       -0.3779
      9 C          23.4422   76.1668   -2.4202 C.3     1  UNL1        0.1713
     10 C          24.8038   76.4436   -3.0227 C.3     1  UNL1        0.1895
     11 C          23.6717   74.8369   -1.7131 C.3     1  UNL1        0.1764
     12 C          25.7377   75.9286   -1.9407 C.3     1  UNL1        0.2383
     13 H          22.9805   78.0019   -1.8559 H       1  UNL1        0.2105
     14 H          24.3803   78.0953   -3.9944 H       1  UNL1        0.2106
     15 O          26.1186   75.1360   -4.6249 O.2     1  UNL1       -0.2464
     16 O          30.5409   74.0756   -3.8761 O.2     1  UNL1       -0.2670
     17 N          26.9785   75.4417   -2.4745 N.ar    1  UNL1       -0.2551
     18 N          28.3203   74.6088   -4.2499 N.ar    1  UNL1       -0.2743
     19 C          27.0637   75.0691   -3.8362 C.ar    1  UNL1        0.3323
     20 C          28.0941   75.3381   -1.6507 C.ar    1  UNL1        0.0869
     21 C          29.2849   74.8960   -2.0603 C.ar    1  UNL1        0.0795
     22 C          29.4586   74.4864   -3.4689 C.ar    1  UNL1        0.2626
     23 H          28.4033   74.3431   -5.1945 H       1  UNL1        0.1734
     24 O          20.9763   71.4021   -3.5916 O.3     1  UNL1       -0.2703
     25 P          19.8173   70.3250   -3.9225 P.3     1  UNL1        0.2208
     26 O          18.5441   70.8841   -3.0955 O.co2   1  UNL1       -0.4371
     27 O          20.1875   68.9053   -3.6042 O.2     1  UNL1       -0.5170
     28 O          19.4451   70.5881   -5.4708 O.3     1  UNL1       -0.2858
     29 O          19.6430   72.5683   -6.7577 O.3     1  UNL1       -0.3258
     30 O          16.1710   71.0562   -8.4036 O.3     1  UNL1       -0.3794
     31 O          18.6084   70.9829   -9.9207 O.3     1  UNL1       -0.3794
     32 O          16.6487   70.8065   -5.5595 O.3     1  UNL1       -0.3775
     33 C          17.4728   70.9851   -7.8157 C.3     1  UNL1        0.1715
     34 C          18.4499   71.7366   -8.7219 C.3     1  UNL1        0.1694
     35 C          17.4290   71.6214   -6.4276 C.3     1  UNL1        0.1967
     36 C          19.8062   71.9337   -8.0314 C.3     1  UNL1        0.1761
     37 C          18.8325   71.8173   -5.8516 C.3     1  UNL1        0.2704
     38 H          16.1918   70.6534   -9.2850 H       1  UNL1        0.2105
     39 H          17.7447   70.8652  -10.3467 H       1  UNL1        0.2105
     40 H          15.7626   70.6902   -5.9351 H       1  UNL1        0.2106
     41 O          20.1920   74.1188   -8.9176 O.3     1  UNL1       -0.3794
     42 C          20.7433   72.8164   -8.8529 C.3     1  UNL1        0.1693
     43 H          20.7780   74.6918   -9.4372 H       1  UNL1        0.2105
@<TRIPOS>UNITY_ATOM_ATTR
2 1
charge -1
26 1
charge -1
@<TRIPOS>BOND
     1    25    28    1
     2    25    24    1
     3    25    26    1
     4    25    27    2
     5     1     4    1
     6     1    24    1
     7     1     2    1
     8     1     3    2
     9     6    11    1
    10     6    12    1
    11    29    36    1
    12    29    37    1
    13     7     9    1
    14     7    13    1
    15     8    10    1
    16     8    14    1
    17    28    37    1
    18     4     5    1
    19    30    33    1
    20    30    38    1
    21    31    34    1
    22    31    39    1
    23    32    35    1
    24    32    40    1
    25    41    42    1
    26    41    43    1
    27    15    19    2
    28    16    22    2
    29    17    12    1
    30    17    19   ar
    31    17    20   ar
    32    18    19   ar
    33    18    22   ar
    34    18    23    1
    35     9    10    1
    36     9    11    1
    37    10    12    1
    38    11     5    1
    39    33    34    1
    40    33    35    1
    41    34    36    1
    42    35    37    1
    43    36    42    1
    44    20    21   ar
    45    21    22   ar
@<TRIPOS>MOLECULE
*****
 43 45 0 0 0
SMALL
GASTEIGER

@<TRIPOS>ATOM
      1 P          19.3246   68.9816   -3.1789 P.3     1  UNL1        0.2189
      2 O          18.3427   69.4196   -1.9699 O.co2   1  UNL1       -0.4371
      3 O          19.1130   67.5884   -3.6942 O.2     1  UNL1       -0.5170
      4 O          20.8056   69.3039   -2.6126 O.3     1  UNL1       -0.3112
      5 C          20.9255   70.1095   -1.4531 C.3     1  UNL1        0.1811
      6 O          20.3568   72.3063   -0.6629 O.3     1  UNL1       -0.3308
      7 O          21.6688   73.3380   -3.1539 O.3     1  UNL1       -0.3794
      8 O          23.5873   73.7455   -1.2591 O.3     1  UNL1       -0.3779
      9 C          22.0294   72.2234   -2.3396 C.3     1  UNL1        0.1713
     10 C          22.6621   72.6984   -1.0483 C.3     1  UNL1        0.1895
     11 C          20.7455   71.5701   -1.8433 C.3     1  UNL1        0.1764
     12 C          21.4494   73.1421   -0.2478 C.3     1  UNL1        0.2383
     13 H          22.4726   73.7713   -3.4829 H       1  UNL1        0.2105
     14 H          24.3402   73.4134   -1.7725 H       1  UNL1        0.2106
     15 O          22.1736   70.7207    1.0132 O.2     1  UNL1       -0.2464
     16 O          22.1571   72.6764    5.1865 O.2     1  UNL1       -0.2670
     17 N          21.6415   72.9901    1.1669 N.ar    1  UNL1       -0.2551
     18 N          22.1649   71.6965    3.0901 N.ar    1  UNL1       -0.2743
     19 C          22.0035   71.7307    1.6992 C.ar    1  UNL1        0.3323
     20 C          21.4713   74.0824    2.0106 C.ar    1  UNL1        0.0869
     21 C          21.6278   74.0328    3.3351 C.ar    1  UNL1        0.0795
     22 C          22.0058   72.7543    3.9712 C.ar    1  UNL1        0.2626
     23 H          22.4167   70.8294    3.4834 H       1  UNL1        0.1734
     24 O          19.0933   70.1467   -4.2752 O.3     1  UNL1       -0.2703
     25 P          17.8068   71.0766   -4.5807 P.3     1  UNL1        0.2208
     26 O          17.8766   72.2000   -3.4186 O.co2   1  UNL1       -0.4371
     27 O          16.5068   70.3280   -4.6411 O.2     1  UNL1       -0.5170
     28 O          18.1868   71.8674   -5.9354 O.3     1  UNL1       -0.2858
     29 O          19.4051   70.7067   -7.6044 O.3     1  UNL1       -0.3258
     30 O          20.1658   74.5828   -8.8077 O.3     1  UNL1       -0.3794
     31 O          18.3773   72.9455  -10.3467 O.3     1  UNL1       -0.3794
     32 O          20.0816   73.9367   -5.9873 O.3     1  UNL1       -0.3775
     33 C          19.3852   73.5196   -8.2549 C.3     1  UNL1        0.1715
     34 C          19.2269   72.4355   -9.3229 C.3     1  UNL1        0.1694
     35 C          20.1000   72.9627   -7.0252 C.3     1  UNL1        0.1967
     36 C          18.6335   71.1523   -8.7259 C.3     1  UNL1        0.1761
     37 C          19.4600   71.6602   -6.5415 C.3     1  UNL1        0.2704
     38 H          19.7172   74.9412   -9.5887 H       1  UNL1        0.2105
     39 H          18.7631   73.7559  -10.7149 H       1  UNL1        0.2105
     40 H          20.4897   74.7564   -6.3059 H       1  UNL1        0.2106
     41 O          19.4058   70.3770  -10.8499 O.3     1  UNL1       -0.3794
     42 C          18.6133   70.0075   -9.7365 C.3     1  UNL1        0.1693
     43 H          19.4025   69.6577  -11.5013 H       1  UNL1        0.2105
@<TRIPOS>UNITY_ATOM_ATTR
2 1
charge -1
26 1
charge -1
@<TRIPOS>BOND
     1    25    28    1
     2    25    24    1
     3    25    26    1
     4    25    27    2
     5     1     4    1
     6     1    24    1
     7     1     2    1
     8     1     3    2
     9     6    11    1
    10     6    12    1
    11    29    36    1
    12    29    37    1
    13     7     9    1
    14     7    13    1
    15     8    10    1
    16     8    14    1
    17    28    37    1
    18     4     5    1
    19    30    33    1
    20    30    38    1
    21    31    34    1
    22    31    39    1
    23    32    35    1
    24    32    40    1
    25    41    42    1
    26    41    43    1
    27    15    19    2
    28    16    22    2
    29    17    12    1
    30    17    19   ar
    31    17    20   ar
    32    18    19   ar
    33    18    22   ar
    34    18    23    1
    35     9    10    1
    36     9    11    1
    37    10    12    1
    38    11     5    1
    39    33    34    1
    40    33    35    1
    41    34    36    1
    42    35    37    1
    43    36    42    1
    44    20    21   ar
    45    21    22   ar
@<TRIPOS>MOLECULE
*****
 43 45 0 0 0
SMALL
GASTEIGER

@<TRIPOS>ATOM
      1 P          19.1466   70.2163   -3.3106 P.3     1  UNL1        0.2189
      2 O          18.7829   68.8552   -2.5153 O.co2   1  UNL1       -0.4371
      3 O          18.6686   71.4794   -2.6567 O.2     1  UNL1       -0.5170
      4 O          18.5971   69.9494   -4.8089 O.3     1  UNL1       -0.3112
      5 C          19.2060   70.6407   -5.8855 C.3     1  UNL1        0.1811
      6 O          18.7474   72.8758   -6.6389 O.3     1  UNL1       -0.3308
      7 O          16.5268   71.6745   -8.2565 O.3     1  UNL1       -0.3794
      8 O          18.4897   72.0328  -10.1154 O.3     1  UNL1       -0.3779
      9 C          17.8154   71.1406   -7.9565 C.3     1  UNL1        0.1713
     10 C          18.8797   71.8472   -8.7699 C.3     1  UNL1        0.1895
     11 C          18.1751   71.5537   -6.5348 C.3     1  UNL1        0.1764
     12 C          19.0311   73.1591   -8.0188 C.3     1  UNL1        0.2383
     13 H          16.2753   71.4235   -9.1597 H       1  UNL1        0.2105
     14 H          18.4069   71.1698  -10.5502 H       1  UNL1        0.2106
     15 O          21.3885   71.6036   -8.0501 O.2     1  UNL1       -0.2464
     16 O          24.0659   75.3374   -8.4126 O.2     1  UNL1       -0.2670
     17 N          20.3577   73.6987   -8.1209 N.ar    1  UNL1       -0.2551
     18 N          22.7197   73.4640   -8.2308 N.ar    1  UNL1       -0.2743
     19 C          21.4745   72.8309   -8.1269 C.ar    1  UNL1        0.3323
     20 C          20.5411   75.0741   -8.2141 C.ar    1  UNL1        0.0869
     21 C          21.7352   75.6621   -8.3112 C.ar    1  UNL1        0.0795
     22 C          22.9535   74.8268   -8.3245 C.ar    1  UNL1        0.2626
     23 H          23.5122   72.8795   -8.2365 H       1  UNL1        0.1734
     24 O          20.7501   70.1160   -3.4885 O.3     1  UNL1       -0.2703
     25 P          21.9346   71.1104   -3.0182 P.3     1  UNL1        0.2208
     26 O          21.5952   72.4867   -3.7981 O.co2   1  UNL1       -0.4371
     27 O          23.3173   70.5818   -3.2681 O.2     1  UNL1       -0.5170
     28 O          21.6099   71.4287   -1.4695 O.3     1  UNL1       -0.2858
     29 O          23.2219   72.8579   -0.4817 O.3     1  UNL1       -0.3258
     30 O          21.1864   71.7071    2.9217 O.3     1  UNL1       -0.3794
     31 O          20.8618   74.3750    1.9094 O.3     1  UNL1       -0.3794
     32 O          21.6644   69.7889    0.8071 O.3     1  UNL1       -0.3775
     33 C          21.3246   72.0573    1.5420 C.3     1  UNL1        0.1715
     34 C          21.8776   73.4816    1.4619 C.3     1  UNL1        0.1694
     35 C          22.2786   71.0716    0.8699 C.3     1  UNL1        0.1967
     36 C          22.3032   73.8308    0.0294 C.3     1  UNL1        0.1761
     37 C          22.6773   71.5377   -0.5314 C.3     1  UNL1        0.2704
     38 H          20.5815   72.3288    3.3542 H       1  UNL1        0.2105
     39 H          20.6017   74.1433    2.8149 H       1  UNL1        0.2105
     40 H          21.4169   69.5049    1.7004 H       1  UNL1        0.2106
     41 O          22.0199   76.2033    0.0304 O.3     1  UNL1       -0.3794
     42 C          23.0021   75.1866   -0.0451 C.3     1  UNL1        0.1693
     43 H          22.4502   77.0719   -0.0155 H       1  UNL1        0.2105
@<TRIPOS>UNITY_ATOM_ATTR
2 1
charge -1
26 1
charge -1
@<TRIPOS>BOND
     1    25    28    1
     2    25    24    1
     3    25    26    1
     4    25    27    2
     5     1     4    1
     6     1    24    1
     7     1     2    1
     8     1     3    2
     9     6    11    1
    10     6    12    1
    11    29    36    1
    12    29    37    1
    13     7     9    1
    14     7    13    1
    15     8    10    1
    16     8    14    1
    17    28    37    1
    18     4     5    1
    19    30    33    1
    20    30    38    1
    21    31    34    1
    22    31    39    1
    23    32    35    1
    24    32    40    1
    25    41    42    1
    26    41    43    1
    27    15    19    2
    28    16    22    2
    29    17    12    1
    30    17    19   ar
    31    17    20   ar
    32    18    19   ar
    33    18    22   ar
    34    18    23    1
    35     9    10    1
    36     9    11    1
    37    10    12    1
    38    11     5    1
    39    33    34    1
    40    33    35    1
    41    34    36    1
    42    35    37    1
    43    36    42    1
    44    20    21   ar
    45    21    22   ar
@<TRIPOS>MOLECULE
*****
 43 45 0 0 0
SMALL
GASTEIGER

@<TRIPOS>ATOM
      1 P          21.6249   72.7626   -4.8750 P.3     1  UNL1        0.2189
      2 O          21.0493   73.9704   -3.9654 O.co2   1  UNL1       -0.4371
      3 O          23.0995   72.8205   -5.1461 O.2     1  UNL1       -0.5170
      4 O          20.6695   72.7705   -6.1809 O.3     1  UNL1       -0.3112
      5 C          21.2574   72.5435   -7.4500 C.3     1  UNL1        0.1811
      6 O          19.1343   71.4205   -7.5214 O.3     1  UNL1       -0.3308
      7 O          19.6654   71.0009  -10.4425 O.3     1  UNL1       -0.3794
      8 O          17.9371   73.1103  -10.4496 O.3     1  UNL1       -0.3779
      9 C          19.9941   72.1170   -9.6169 C.3     1  UNL1        0.1713
     10 C          18.7523   72.9278   -9.3099 C.3     1  UNL1        0.1895
     11 C          20.3758   71.5864   -8.2406 C.3     1  UNL1        0.1764
     12 C          18.0812   72.0833   -8.2401 C.3     1  UNL1        0.2383
     13 H          19.4185   71.3148  -11.3270 H       1  UNL1        0.2105
     14 H          18.4080   73.6535  -11.1006 H       1  UNL1        0.2106
     15 O          16.0138   71.0702   -6.6038 O.2     1  UNL1       -0.2464
     16 O          15.2058   75.2101   -4.7465 O.2     1  UNL1       -0.2670
     17 N          17.3142   72.8741   -7.3193 N.ar    1  UNL1       -0.2551
     18 N          15.6133   73.1323   -5.6802 N.ar    1  UNL1       -0.2743
     19 C          16.2974   72.2684   -6.5448 C.ar    1  UNL1        0.3323
     20 C          17.5734   74.2343   -7.1910 C.ar    1  UNL1        0.0869
     21 C          16.9111   75.0446   -6.3628 C.ar    1  UNL1        0.0795
     22 C          15.8332   74.4910   -5.5179 C.ar    1  UNL1        0.2626
     23 H          14.9003   72.7326   -5.1310 H       1  UNL1        0.1734
     24 O          21.1388   71.4434   -4.0773 O.3     1  UNL1       -0.2703
     25 P          21.7972   70.6547   -2.8293 P.3     1  UNL1        0.2208
     26 O          23.3723   70.6260   -3.1978 O.co2   1  UNL1       -0.4371
     27 O          21.1972   69.3032   -2.5697 O.2     1  UNL1       -0.5170
     28 O          21.6870   71.6844   -1.5913 O.3     1  UNL1       -0.2858
     29 O          23.2791   73.0082   -0.4385 O.3     1  UNL1       -0.3258
     30 O          21.0531   71.6986    2.7834 O.3     1  UNL1       -0.3794
     31 O          20.8378   74.4318    1.9284 O.3     1  UNL1       -0.3794
     32 O          21.5927   69.9048    0.5764 O.3     1  UNL1       -0.3775
     33 C          21.2670   72.1307    1.4369 C.3     1  UNL1        0.1715
     34 C          21.8545   73.5429    1.4742 C.3     1  UNL1        0.1694
     35 C          22.2311   71.1652    0.7500 C.3     1  UNL1        0.1967
     36 C          22.3580   73.9701    0.0888 C.3     1  UNL1        0.1761
     37 C          22.7088   71.7078   -0.5981 C.3     1  UNL1        0.2704
     38 H          20.4414   72.3071    3.2250 H       1  UNL1        0.2105
     39 H          20.5282   74.1506    2.8038 H       1  UNL1        0.2105
     40 H          21.2951   69.5719    1.4369 H       1  UNL1        0.2106
     41 O          22.1271   76.3481    0.1152 O.3     1  UNL1       -0.3794
     42 C          23.0894   75.3099    0.1343 C.3     1  UNL1        0.1693
     43 H          22.5782   77.2068    0.1440 H       1  UNL1        0.2105
@<TRIPOS>UNITY_ATOM_ATTR
2 1
charge -1
26 1
charge -1
@<TRIPOS>BOND
     1    25    28    1
     2    25    24    1
     3    25    26    1
     4    25    27    2
     5     1     4    1
     6     1    24    1
     7     1     2    1
     8     1     3    2
     9     6    11    1
    10     6    12    1
    11    29    36    1
    12    29    37    1
    13     7     9    1
    14     7    13    1
    15     8    10    1
    16     8    14    1
    17    28    37    1
    18     4     5    1
    19    30    33    1
    20    30    38    1
    21    31    34    1
    22    31    39    1
    23    32    35    1
    24    32    40    1
    25    41    42    1
    26    41    43    1
    27    15    19    2
    28    16    22    2
    29    17    12    1
    30    17    19   ar
    31    17    20   ar
    32    18    19   ar
    33    18    22   ar
    34    18    23    1
    35     9    10    1
    36     9    11    1
    37    10    12    1
    38    11     5    1
    39    33    34    1
    40    33    35    1
    41    34    36    1
    42    35    37    1
    43    36    42    1
    44    20    21   ar
    45    21    22   ar
@<TRIPOS>MOLECULE
*****
 43 45 0 0 0
SMALL
GASTEIGER

@<TRIPOS>ATOM
      1 P          18.3361   70.2750   -3.1642 P.3     1  UNL1        0.2189
      2 O          18.4782   68.7870   -2.5454 O.co2   1  UNL1       -0.4371
      3 O          17.3677   71.1696   -2.4476 O.2     1  UNL1       -0.5170
      4 O          18.0263   70.0162   -4.7310 O.3     1  UNL1       -0.3112
      5 C          18.7676   70.7425   -5.6958 C.3     1  UNL1        0.1811
      6 O          18.4161   72.8975   -6.6988 O.3     1  UNL1       -0.3308
      7 O          16.3111   71.5684   -8.3701 O.3     1  UNL1       -0.3794
      8 O          18.4254   71.7186  -10.0859 O.3     1  UNL1       -0.3779
      9 C          17.5602   71.0518   -7.9138 C.3     1  UNL1        0.1713
     10 C          18.7009   71.6621   -8.7011 C.3     1  UNL1        0.1895
     11 C          17.8111   71.5990   -6.5142 C.3     1  UNL1        0.1764
     12 C          18.8166   73.0399   -8.0714 C.3     1  UNL1        0.2383
     13 H          16.1290   71.2324   -9.2622 H       1  UNL1        0.2105
     14 H          18.3612   70.8178  -10.4399 H       1  UNL1        0.2106
     15 O          21.1375   71.4308   -8.1137 O.2     1  UNL1       -0.2464
     16 O          23.9088   75.1112   -8.2383 O.2     1  UNL1       -0.2670
     17 N          20.1574   73.5513   -8.1153 N.ar    1  UNL1       -0.2551
     18 N          22.5155   73.2647   -8.1759 N.ar    1  UNL1       -0.2743
     19 C          21.2538   72.6579   -8.1325 C.ar    1  UNL1        0.3323
     20 C          20.3749   74.9246   -8.1412 C.ar    1  UNL1        0.0869
     21 C          21.5844   75.4873   -8.1812 C.ar    1  UNL1        0.0795
     22 C          22.7831   74.6242   -8.2016 C.ar    1  UNL1        0.2626
     23 H          23.2942   72.6620   -8.1881 H       1  UNL1        0.1734
     24 O          19.8614   70.8098   -3.1790 O.3     1  UNL1       -0.2703
     25 P          21.0608   70.6270   -2.1107 P.3     1  UNL1        0.2208
     26 O          22.3175   70.1960   -3.0340 O.co2   1  UNL1       -0.4371
     27 O          20.7525   69.6679   -0.9976 O.2     1  UNL1       -0.5170
     28 O          21.4072   72.1266   -1.6248 O.3     1  UNL1       -0.2858
     29 O          20.8158   72.2935    0.6641 O.3     1  UNL1       -0.3258
     30 O          21.9771   76.1994   -0.0039 O.3     1  UNL1       -0.3794
     31 O          23.6554   74.4682    1.5564 O.3     1  UNL1       -0.3794
     32 O          20.5223   74.7558   -2.0482 O.3     1  UNL1       -0.3775
     33 C          22.0263   74.7794   -0.1670 C.3     1  UNL1        0.1715
     34 C          22.3138   74.1496    1.1973 C.3     1  UNL1        0.1694
     35 C          20.6848   74.2928   -0.7119 C.3     1  UNL1        0.1967
     36 C          22.1183   72.6280    1.1573 C.3     1  UNL1        0.1761
     37 C          20.5746   72.7678   -0.6621 C.3     1  UNL1        0.2704
     38 H          22.8261   76.5149    0.3414 H       1  UNL1        0.2105
     39 H          23.7656   75.4319    1.5775 H       1  UNL1        0.2105
     40 H          20.5939   75.7225   -2.0663 H       1  UNL1        0.2106
     41 O          20.9666   71.9827    3.1488 O.3     1  UNL1       -0.3794
     42 C          22.2459   71.9984    2.5428 C.3     1  UNL1        0.1693
     43 H          21.0323   71.5844    4.0312 H       1  UNL1        0.2105
@<TRIPOS>UNITY_ATOM_ATTR
2 1
charge -1
26 1
charge -1
@<TRIPOS>BOND
     1    25    28    1
     2    25    24    1
     3    25    26    1
     4    25    27    2
     5     1     4    1
     6     1    24    1
     7     1     2    1
     8     1     3    2
     9     6    11    1
    10     6    12    1
    11    29    36    1
    12    29    37    1
    13     7     9    1
    14     7    13    1
    15     8    10    1
    16     8    14    1
    17    28    37    1
    18     4     5    1
    19    30    33    1
    20    30    38    1
    21    31    34    1
    22    31    39    1
    23    32    35    1
    24    32    40    1
    25    41    42    1
    26    41    43    1
    27    15    19    2
    28    16    22    2
    29    17    12    1
    30    17    19   ar
    31    17    20   ar
    32    18    19   ar
    33    18    22   ar
    34    18    23    1
    35     9    10    1
    36     9    11    1
    37    10    12    1
    38    11     5    1
    39    33    34    1
    40    33    35    1
    41    34    36    1
    42    35    37    1
    43    36    42    1
    44    20    21   ar
    45    21    22   ar
