@<TRIPOS>MOLECULE
UD1
 46 48 0 0 0
SMALL
GASTEIGER

@<TRIPOS>ATOM
      1 P          21.7604   71.0636   -2.4914 P.3     1  UNL1        0.2189
      2 O          23.2085   71.2775   -2.7059 O.2     1  UNL1       -0.5170
      3 O          21.4115   69.5054   -2.6987 O.3     1  UNL1       -0.4371
      4 O          20.9258   71.9448   -3.5496 O.3     1  UNL1       -0.3112
      5 C          19.8807   72.5885   -2.8191 C.3     1  UNL1        0.1811
      6 C          17.7749   71.3783   -5.4702 C.3     1  UNL1        0.2383
      7 C          17.9396   70.1651   -4.5208 C.3     1  UNL1        0.1895
      8 O          16.7807   69.3314   -4.5511 O.3     1  UNL1       -0.3779
      9 C          18.0914   70.8517   -3.1385 C.3     1  UNL1        0.1713
     10 C          18.5348   72.2874   -3.4802 C.3     1  UNL1        0.1764
     11 O          18.6633   72.3684   -4.9100 O.3     1  UNL1       -0.3308
     12 O          16.8425   70.8590   -2.4436 O.3     1  UNL1       -0.3794
     13 H          16.9469   68.5984   -3.9423 H       1  UNL1        0.2106
     14 H          16.5905   69.9351   -2.3126 H       1  UNL1        0.2105
     15 N          18.1822   71.0310   -6.8322 N.ar    1  UNL1       -0.2551
     16 C          17.2560   70.6443   -7.7265 C.ar    1  UNL1        0.3323
     17 N          17.6014   70.3227   -8.9872 N.ar    1  UNL1       -0.2743
     18 C          18.8925   70.3752   -9.3724 C.ar    1  UNL1        0.2626
     19 C          19.8787   70.7749   -8.4393 C.ar    1  UNL1        0.0795
     20 C          19.5038   71.0971   -7.1828 C.ar    1  UNL1        0.0869
     21 O          16.0874   70.5920   -7.3942 O.2     1  UNL1       -0.2464
     22 O          19.2066   70.0802  -10.5107 O.2     1  UNL1       -0.2670
     23 H          16.9195   70.0505   -9.6205 H       1  UNL1        0.1734
     24 O          21.3680   71.5080   -0.9956 O.3     1  UNL1       -0.2703
     25 P          22.3279   70.6860    0.0005 P.3     1  UNL1        0.2208
     26 O          23.5207   70.2176   -0.7389 O.2     1  UNL1       -0.5170
     27 O          21.5306   69.4176    0.5902 O.3     1  UNL1       -0.4371
     28 O          22.7882   71.6396    1.2127 O.3     1  UNL1       -0.2865
     29 C          21.8737   72.7367    1.2473 C.3     1  UNL1        0.2611
     30 C          22.6000   74.0133    0.8198 C.3     1  UNL1        0.1582
     31 C          23.7785   74.2610    1.7682 C.3     1  UNL1        0.1625
     32 C          23.2568   74.2590    3.2091 C.3     1  UNL1        0.1686
     33 C          22.4835   72.9622    3.4572 C.3     1  UNL1        0.1760
     34 O          24.3733   75.5260    1.4726 O.3     1  UNL1       -0.3801
     35 O          24.3578   74.3415    4.1160 O.3     1  UNL1       -0.3794
     36 O          21.3670   72.8896    2.5714 O.3     1  UNL1       -0.3263
     37 H          25.1082   75.6404    2.0908 H       1  UNL1        0.2105
     38 H          23.9854   74.3366    5.0092 H       1  UNL1        0.2105
     39 C          22.9586   74.8662   -1.4337 C.2     1  UNL1        0.2231
     40 C          23.4690   74.7073   -2.8431 C.3     1  UNL1        0.0946
     41 N          23.0962   73.8596   -0.5494 N.am    1  UNL1       -0.2994
     42 O          22.4234   75.9003   -1.0957 O.2     1  UNL1       -0.2751
     43 H          23.5243   73.0318   -0.8196 H       1  UNL1        0.1496
     44 C          21.9857   72.9356    4.9039 C.3     1  UNL1        0.1693
     45 O          21.6957   74.2675    5.3328 O.3     1  UNL1       -0.3794
     46 H          21.3864   74.2060    6.2467 H       1  UNL1        0.2105
@<TRIPOS>BOND
     1    29    30    1
     2    29    28    1
     3    29    36    1
     4    30    31    1
     5    30    41    1
     6    31    32    1
     7    31    34    1
     8    32    33    1
     9    32    35    1
    10    33    44    1
    11    33    36    1
    12    44    45    1
    13    39    40    1
    14    39    41   am
    15    39    42    2
    16    41    43    1
    17    28    25    1
    18    34    37    1
    19    35    38    1
    20    45    46    1
    21    15    16   ar
    22    15    20   ar
    23    15     6    1
    24    16    17   ar
    25    16    21    2
    26    17    18   ar
    27    17    23    1
    28    18    19   ar
    29    18    22    2
    30    19    20   ar
    31     6     7    1
    32     6    11    1
    33     7     8    1
    34     7     9    1
    35     8    13    1
    36     9    10    1
    37     9    12    1
    38    10    11    1
    39    10     5    1
    40    12    14    1
    41     5     4    1
    42     4     1    1
    43     1     2    2
    44     1     3    1
    45     1    24    1
    46    24    25    1
    47    25    26    2
    48    25    27    1
@<TRIPOS>MOLECULE
UD1
 46 48 0 0 0
SMALL
GASTEIGER

@<TRIPOS>ATOM
      1 P          21.8081   70.3467   -0.5083 P.3     1  UNL1        0.2189
      2 O          23.0969   70.7229   -1.1297 O.2     1  UNL1       -0.5170
      3 O          22.0472   69.1481    0.5399 O.3     1  UNL1       -0.4371
      4 O          20.7831   69.8618   -1.6516 O.3     1  UNL1       -0.3112
      5 C          20.9236   70.7696   -2.7455 C.3     1  UNL1        0.1811
      6 C          18.3790   71.0201   -5.2732 C.3     1  UNL1        0.2383
      7 C          18.0854   69.6772   -4.5586 C.3     1  UNL1        0.1895
      8 O          16.6882   69.3829   -4.5776 O.3     1  UNL1       -0.3779
      9 C          18.5708   69.9642   -3.1139 C.3     1  UNL1        0.1713
     10 C          19.5399   71.1516   -3.2735 C.3     1  UNL1        0.1764
     11 O          19.6189   71.4561   -4.6765 O.3     1  UNL1       -0.3308
     12 O          17.4681   70.3191   -2.2768 O.3     1  UNL1       -0.3794
     13 H          16.5735   68.5386   -4.1198 H       1  UNL1        0.2106
     14 H          16.8705   69.5596   -2.2653 H       1  UNL1        0.2105
     15 N          18.5424   70.8174   -6.7132 N.ar    1  UNL1       -0.2551
     16 C          17.4579   70.7643   -7.5059 C.ar    1  UNL1        0.3323
     17 N          17.5785   70.5828   -8.8343 N.ar    1  UNL1       -0.2743
     18 C          18.7975   70.4411   -9.3928 C.ar    1  UNL1        0.2626
     19 C          19.9474   70.4890   -8.5692 C.ar    1  UNL1        0.0795
     20 C          19.7979   70.6775   -7.2405 C.ar    1  UNL1        0.0869
     21 O          16.3517   70.8905   -7.0170 O.2     1  UNL1       -0.2464
     22 O          18.9075   70.2722  -10.5931 O.2     1  UNL1       -0.2670
     23 H          16.7857   70.5518   -9.3917 H       1  UNL1        0.1734
     24 O          21.1915   71.6184    0.2607 O.3     1  UNL1       -0.2703
     25 P          21.9454   71.7145    1.6790 P.3     1  UNL1        0.2208
     26 O          22.5728   70.4120    1.9932 O.2     1  UNL1       -0.5170
     27 O          20.8820   72.0883    2.8286 O.3     1  UNL1       -0.4371
     28 O          23.0803   72.8537    1.6088 O.3     1  UNL1       -0.2865
     29 C          22.4127   74.1115    1.7249 C.3     1  UNL1        0.2611
     30 C          22.7987   74.9993    0.5405 C.3     1  UNL1        0.1582
     31 C          24.3193   75.1924    0.5335 C.3     1  UNL1        0.1625
     32 C          24.7536   75.7132    1.9076 C.3     1  UNL1        0.1686
     33 C          24.2225   74.7697    2.9888 C.3     1  UNL1        0.1760
     34 O          24.6773   76.1382   -0.4758 O.3     1  UNL1       -0.3801
     35 O          26.1802   75.7610    1.9716 O.3     1  UNL1       -0.3794
     36 O          22.7964   74.7409    2.9455 O.3     1  UNL1       -0.3263
     37 H          25.6397   76.2287   -0.4452 H       1  UNL1        0.2105
     38 H          26.4098   76.0928    2.8513 H       1  UNL1        0.2105
     39 C          21.8279   75.0964   -1.6917 C.2     1  UNL1        0.2231
     40 C          21.3963   74.4374   -2.9768 C.3     1  UNL1        0.0946
     41 N          22.3797   74.3596   -0.7084 N.am    1  UNL1       -0.2994
     42 O          21.6779   76.2903   -1.5424 O.2     1  UNL1       -0.2751
     43 H          22.4997   73.4041   -0.8275 H       1  UNL1        0.1496
     44 C          24.6784   75.2633    4.3635 C.3     1  UNL1        0.1693
     45 O          23.5440   75.7066    5.1111 O.3     1  UNL1       -0.3794
     46 H          23.8743   76.0088    5.9680 H       1  UNL1        0.2105
@<TRIPOS>BOND
     1    29    30    1
     2    29    28    1
     3    29    36    1
     4    30    31    1
     5    30    41    1
     6    31    32    1
     7    31    34    1
     8    32    33    1
     9    32    35    1
    10    33    44    1
    11    33    36    1
    12    44    45    1
    13    39    40    1
    14    39    41   am
    15    39    42    2
    16    41    43    1
    17    28    25    1
    18    34    37    1
    19    35    38    1
    20    45    46    1
    21    15    16   ar
    22    15    20   ar
    23    15     6    1
    24    16    17   ar
    25    16    21    2
    26    17    18   ar
    27    17    23    1
    28    18    19   ar
    29    18    22    2
    30    19    20   ar
    31     6     7    1
    32     6    11    1
    33     7     8    1
    34     7     9    1
    35     8    13    1
    36     9    10    1
    37     9    12    1
    38    10    11    1
    39    10     5    1
    40    12    14    1
    41     5     4    1
    42     4     1    1
    43     1     2    2
    44     1     3    1
    45     1    24    1
    46    24    25    1
    47    25    26    2
    48    25    27    1
@<TRIPOS>MOLECULE
UD1
 46 48 0 0 0
SMALL
GASTEIGER

@<TRIPOS>ATOM
      1 P          21.9445   70.4499   -0.3476 P.3     1  UNL1        0.2189
      2 O          22.8257   71.4550   -0.9816 O.2     1  UNL1       -0.5170
      3 O          22.8267   69.1946    0.1408 O.3     1  UNL1       -0.4371
      4 O          20.8467   69.9503   -1.4145 O.3     1  UNL1       -0.3112
      5 C          20.9528   70.8096   -2.5506 C.3     1  UNL1        0.1811
      6 C          18.3969   71.0102   -5.0715 C.3     1  UNL1        0.2383
      7 C          18.1601   69.6408   -4.3867 C.3     1  UNL1        0.1895
      8 O          16.7763   69.2893   -4.4118 O.3     1  UNL1       -0.3779
      9 C          18.6350   69.9157   -2.9361 C.3     1  UNL1        0.1713
     10 C          19.5539   71.1454   -3.0697 C.3     1  UNL1        0.1764
     11 O          19.6185   71.4839   -4.4656 O.3     1  UNL1       -0.3308
     12 O          17.5195   70.2060   -2.0910 O.3     1  UNL1       -0.3794
     13 H          16.6972   68.4311   -3.9727 H       1  UNL1        0.2106
     14 H          16.9539   69.4223   -2.0962 H       1  UNL1        0.2105
     15 N          18.5669   70.8463   -6.5156 N.ar    1  UNL1       -0.2551
     16 C          17.4846   70.7709   -7.3096 C.ar    1  UNL1        0.3323
     17 N          17.6111   70.6241   -8.6418 N.ar    1  UNL1       -0.2743
     18 C          18.8342   70.5405   -9.2031 C.ar    1  UNL1        0.2626
     19 C          19.9819   70.6123   -8.3783 C.ar    1  UNL1        0.0795
     20 C          19.8264   70.7651   -7.0457 C.ar    1  UNL1        0.0869
     21 O          16.3748   70.8449   -6.8182 O.2     1  UNL1       -0.2464
     22 O          18.9496   70.4029  -10.4069 O.2     1  UNL1       -0.2670
     23 H          16.8196   70.5764   -9.1999 H       1  UNL1        0.1734
     24 O          21.2013   71.1096    0.9178 O.3     1  UNL1       -0.2703
     25 P          21.7485   72.6175    1.0441 P.3     1  UNL1        0.2208
     26 O          20.7530   73.5526    0.4754 O.2     1  UNL1       -0.5170
     27 O          23.1352   72.7553    0.2377 O.3     1  UNL1       -0.4371
     28 O          21.9936   72.9727    2.5947 O.3     1  UNL1       -0.2865
     29 C          21.7644   74.3754    2.7399 C.3     1  UNL1        0.2611
     30 C          23.0162   75.0341    3.3220 C.3     1  UNL1        0.1582
     31 C          23.3345   74.3946    4.6783 C.3     1  UNL1        0.1625
     32 C          22.0853   74.4731    5.5623 C.3     1  UNL1        0.1686
     33 C          20.9042   73.8538    4.8122 C.3     1  UNL1        0.1760
     34 O          24.4102   75.1003    5.2998 O.3     1  UNL1       -0.3801
     35 O          22.3127   73.7538    6.7758 O.3     1  UNL1       -0.3794
     36 O          20.6569   74.5867    3.6130 O.3     1  UNL1       -0.3263
     37 H          24.5768   74.6655    6.1474 H       1  UNL1        0.2105
     38 H          21.5033   73.8281    7.3010 H       1  UNL1        0.2105
     39 C          24.9920   75.8502    2.1538 C.2     1  UNL1        0.2231
     40 C          26.1524   75.6452    1.2137 C.3     1  UNL1        0.0946
     41 N          24.1439   74.8354    2.4093 N.am    1  UNL1       -0.2994
     42 O          24.8212   76.9291    2.6800 O.2     1  UNL1       -0.2751
     43 H          24.2802   73.9719    1.9881 H       1  UNL1        0.1496
     44 C          19.6585   73.8978    5.6996 C.3     1  UNL1        0.1693
     45 O          19.7969   74.9430    6.6641 O.3     1  UNL1       -0.3794
     46 H          18.9932   74.9362    7.2014 H       1  UNL1        0.2105
@<TRIPOS>BOND
     1    29    30    1
     2    29    28    1
     3    29    36    1
     4    30    31    1
     5    30    41    1
     6    31    32    1
     7    31    34    1
     8    32    33    1
     9    32    35    1
    10    33    44    1
    11    33    36    1
    12    44    45    1
    13    39    40    1
    14    39    41   am
    15    39    42    2
    16    41    43    1
    17    28    25    1
    18    34    37    1
    19    35    38    1
    20    45    46    1
    21    15    16   ar
    22    15    20   ar
    23    15     6    1
    24    16    17   ar
    25    16    21    2
    26    17    18   ar
    27    17    23    1
    28    18    19   ar
    29    18    22    2
    30    19    20   ar
    31     6     7    1
    32     6    11    1
    33     7     8    1
    34     7     9    1
    35     8    13    1
    36     9    10    1
    37     9    12    1
    38    10    11    1
    39    10     5    1
    40    12    14    1
    41     5     4    1
    42     4     1    1
    43     1     2    2
    44     1     3    1
    45     1    24    1
    46    24    25    1
    47    25    26    2
    48    25    27    1
@<TRIPOS>MOLECULE
UD1
 46 48 0 0 0
SMALL
GASTEIGER

@<TRIPOS>ATOM
      1 P          21.9356   70.8148   -0.6448 P.3     1  UNL1        0.2189
      2 O          22.7569   70.3591   -1.7879 O.2     1  UNL1       -0.5170
      3 O          21.6916   69.5846    0.3650 O.3     1  UNL1       -0.4371
      4 O          20.5177   71.3540   -1.1847 O.3     1  UNL1       -0.3112
      5 C          20.6240   71.4463   -2.6061 C.3     1  UNL1        0.1811
      6 C          18.1918   71.2180   -5.2443 C.3     1  UNL1        0.2383
      7 C          18.0344   69.8939   -4.4556 C.3     1  UNL1        0.1895
      8 O          16.6875   69.4229   -4.5110 O.3     1  UNL1       -0.3779
      9 C          18.4106   70.3265   -3.0146 C.3     1  UNL1        0.1713
     10 C          19.2303   71.6161   -3.2128 C.3     1  UNL1        0.1764
     11 O          19.3376   71.8437   -4.6284 O.3     1  UNL1       -0.3308
     12 O          17.2334   70.5872   -2.2471 O.3     1  UNL1       -0.3794
     13 H          16.6573   68.5999   -4.0038 H       1  UNL1        0.2106
     14 H          16.7354   69.7597   -2.2098 H       1  UNL1        0.2105
     15 N          18.4480   70.9519   -6.6603 N.ar    1  UNL1       -0.2551
     16 C          17.4150   70.7947   -7.5062 C.ar    1  UNL1        0.3323
     17 N          17.6210   70.5529   -8.8144 N.ar    1  UNL1       -0.2743
     18 C          18.8758   70.4549   -9.2979 C.ar    1  UNL1        0.2626
     19 C          19.9724   70.6124   -8.4173 C.ar    1  UNL1        0.0795
     20 C          19.7373   70.8595   -7.1108 C.ar    1  UNL1        0.0869
     21 O          16.2774   70.8804   -7.0852 O.2     1  UNL1       -0.2464
     22 O          19.0632   70.2316  -10.4796 O.2     1  UNL1       -0.2670
     23 H          16.8641   70.4469   -9.4111 H       1  UNL1        0.1734
     24 O          22.7016   72.0004    0.1274 O.3     1  UNL1       -0.2703
     25 P          21.6482   72.6365    1.1643 P.3     1  UNL1        0.2208
     26 O          21.1103   71.5701    2.0374 O.2     1  UNL1       -0.5170
     27 O          20.4405   73.3227    0.3502 O.3     1  UNL1       -0.4371
     28 O          22.3850   73.7476    2.0661 O.3     1  UNL1       -0.2865
     29 C          21.8031   73.6765    3.3689 C.3     1  UNL1        0.2611
     30 C          21.0468   74.9748    3.6557 C.3     1  UNL1        0.1582
     31 C          22.0217   76.1540    3.5622 C.3     1  UNL1        0.1625
     32 C          23.2150   75.8775    4.4829 C.3     1  UNL1        0.1686
     33 C          23.8097   74.5121    4.1315 C.3     1  UNL1        0.1760
     34 O          21.3633   77.3535    3.9734 O.3     1  UNL1       -0.3801
     35 O          24.2042   76.8923    4.3009 O.3     1  UNL1       -0.3794
     36 O          22.8325   73.4929    4.3384 O.3     1  UNL1       -0.3263
     37 H          22.0112   78.0675    3.8987 H       1  UNL1        0.2105
     38 H          24.9362   76.6797    4.8972 H       1  UNL1        0.2105
     39 C          18.6877   75.1262    3.0675 C.2     1  UNL1        0.2231
     40 C          17.5849   75.3009    2.0547 C.3     1  UNL1        0.0946
     41 N          19.9752   75.1451    2.6723 N.am    1  UNL1       -0.2994
     42 O          18.4158   74.9678    4.2385 O.2     1  UNL1       -0.2751
     43 H          20.1930   75.2716    1.7352 H       1  UNL1        0.1496
     44 C          25.0226   74.2406    5.0239 C.3     1  UNL1        0.1693
     45 O          26.1344   75.0122    4.5650 O.3     1  UNL1       -0.3794
     46 H          26.8755   74.8120    5.1526 H       1  UNL1        0.2105
@<TRIPOS>BOND
     1    29    30    1
     2    29    28    1
     3    29    36    1
     4    30    31    1
     5    30    41    1
     6    31    32    1
     7    31    34    1
     8    32    33    1
     9    32    35    1
    10    33    44    1
    11    33    36    1
    12    44    45    1
    13    39    40    1
    14    39    41   am
    15    39    42    2
    16    41    43    1
    17    28    25    1
    18    34    37    1
    19    35    38    1
    20    45    46    1
    21    15    16   ar
    22    15    20   ar
    23    15     6    1
    24    16    17   ar
    25    16    21    2
    26    17    18   ar
    27    17    23    1
    28    18    19   ar
    29    18    22    2
    30    19    20   ar
    31     6     7    1
    32     6    11    1
    33     7     8    1
    34     7     9    1
    35     8    13    1
    36     9    10    1
    37     9    12    1
    38    10    11    1
    39    10     5    1
    40    12    14    1
    41     5     4    1
    42     4     1    1
    43     1     2    2
    44     1     3    1
    45     1    24    1
    46    24    25    1
    47    25    26    2
    48    25    27    1
@<TRIPOS>MOLECULE
UD1
 46 48 0 0 0
SMALL
GASTEIGER

@<TRIPOS>ATOM
      1 P          22.2581   70.4184   -0.3325 P.3     1  UNL1        0.2189
      2 O          23.3677   69.5706    0.1564 O.2     1  UNL1       -0.5170
      3 O          21.3425   70.8738    0.9111 O.3     1  UNL1       -0.4371
      4 O          21.3640   69.5810   -1.3776 O.3     1  UNL1       -0.3112
      5 C          21.3444   70.3265   -2.5959 C.3     1  UNL1        0.1811
      6 C          18.6225   70.6970   -4.9156 C.3     1  UNL1        0.2383
      7 C          18.5121   69.2340   -4.4181 C.3     1  UNL1        0.1895
      8 O          17.1528   68.7965   -4.4146 O.3     1  UNL1       -0.3779
      9 C          19.0633   69.3392   -2.9723 C.3     1  UNL1        0.1713
     10 C          19.8973   70.6349   -2.9830 C.3     1  UNL1        0.1764
     11 O          19.8508   71.1648   -4.3188 O.3     1  UNL1       -0.3308
     12 O          17.9900   69.4351   -2.0334 O.3     1  UNL1       -0.3794
     13 H          17.1533   67.8829   -4.0969 H       1  UNL1        0.2106
     14 H          17.4726   68.6231   -2.1170 H       1  UNL1        0.2105
     15 N          18.7075   70.7441   -6.3757 N.ar    1  UNL1       -0.2551
     16 C          17.5821   70.7082   -7.1102 C.ar    1  UNL1        0.3323
     17 N          17.6300   70.7540   -8.4547 N.ar    1  UNL1       -0.2743
     18 C          18.8169   70.8278   -9.0902 C.ar    1  UNL1        0.2626
     19 C          20.0098   70.8604   -8.3294 C.ar    1  UNL1        0.0795
     20 C          19.9326   70.8185   -6.9820 C.ar    1  UNL1        0.0869
     21 O          16.5040   70.6416   -6.5516 O.2     1  UNL1       -0.2464
     22 O          18.8617   70.8645  -10.3059 O.2     1  UNL1       -0.2670
     23 H          16.8080   70.7318   -8.9685 H       1  UNL1        0.1734
     24 O          22.8589   71.7200   -1.0630 O.3     1  UNL1       -0.2703
     25 P          22.2652   73.0015   -0.2917 P.3     1  UNL1        0.2208
     26 O          22.7813   73.0255    1.0946 O.2     1  UNL1       -0.5170
     27 O          20.6578   72.9146   -0.2637 O.3     1  UNL1       -0.4371
     28 O          22.7154   74.3450   -1.0552 O.3     1  UNL1       -0.2865
     29 C          23.5900   75.0500   -0.1725 C.3     1  UNL1        0.2611
     30 C          23.1445   76.5105   -0.0802 C.3     1  UNL1        0.1582
     31 C          23.1727   77.1326   -1.4808 C.3     1  UNL1        0.1625
     32 C          24.5625   76.9120   -2.0873 C.3     1  UNL1        0.1686
     33 C          24.8998   75.4205   -2.0310 C.3     1  UNL1        0.1760
     34 O          22.9037   78.5328   -1.3884 O.3     1  UNL1       -0.3801
     35 O          24.5665   77.3533   -3.4463 O.3     1  UNL1       -0.3794
     36 O          24.9236   74.9826   -0.6730 O.3     1  UNL1       -0.3263
     37 H          22.9309   78.8826   -2.2896 H       1  UNL1        0.2105
     38 H          25.4577   77.1958   -3.7889 H       1  UNL1        0.2105
     39 C          20.7287   76.6046   -0.3784 C.2     1  UNL1        0.2231
     40 C          19.3285   76.6711    0.1759 C.3     1  UNL1        0.0946
     41 N          21.7841   76.5746    0.4578 N.am    1  UNL1       -0.2994
     42 O          20.9053   76.5787   -1.5777 O.2     1  UNL1       -0.2751
     43 H          21.6430   76.5956    1.4176 H       1  UNL1        0.1496
     44 C          26.2727   75.1851   -2.6640 C.3     1  UNL1        0.1693
     45 O          26.1084   74.8102   -4.0331 O.3     1  UNL1       -0.3794
     46 H          26.9947   74.6714   -4.3935 H       1  UNL1        0.2105
@<TRIPOS>BOND
     1    29    30    1
     2    29    28    1
     3    29    36    1
     4    30    31    1
     5    30    41    1
     6    31    32    1
     7    31    34    1
     8    32    33    1
     9    32    35    1
    10    33    44    1
    11    33    36    1
    12    44    45    1
    13    39    40    1
    14    39    41   am
    15    39    42    2
    16    41    43    1
    17    28    25    1
    18    34    37    1
    19    35    38    1
    20    45    46    1
    21    15    16   ar
    22    15    20   ar
    23    15     6    1
    24    16    17   ar
    25    16    21    2
    26    17    18   ar
    27    17    23    1
    28    18    19   ar
    29    18    22    2
    30    19    20   ar
    31     6     7    1
    32     6    11    1
    33     7     8    1
    34     7     9    1
    35     8    13    1
    36     9    10    1
    37     9    12    1
    38    10    11    1
    39    10     5    1
    40    12    14    1
    41     5     4    1
    42     4     1    1
    43     1     2    2
    44     1     3    1
    45     1    24    1
    46    24    25    1
    47    25    26    2
    48    25    27    1
@<TRIPOS>MOLECULE
UD1
 46 48 0 0 0
SMALL
GASTEIGER

@<TRIPOS>ATOM
      1 P          23.2136   74.2366   -4.6253 P.3     1  UNL1        0.2189
      2 O          24.2954   75.2262   -4.8231 O.2     1  UNL1       -0.5170
      3 O          23.8392   72.8619   -4.0673 O.3     1  UNL1       -0.4371
      4 O          22.4777   73.9588   -6.0303 O.3     1  UNL1       -0.3112
      5 C          22.5285   75.1782   -6.7724 C.3     1  UNL1        0.1811
      6 C          19.5834   74.0349   -8.4889 C.3     1  UNL1        0.2383
      7 C          19.1620   75.3820   -7.8503 C.3     1  UNL1        0.1895
      8 O          18.1722   76.0368   -8.6445 O.3     1  UNL1       -0.3779
      9 C          20.4935   76.1772   -7.8592 C.3     1  UNL1        0.1713
     10 C          21.5788   75.0887   -7.9680 C.3     1  UNL1        0.1764
     11 O          20.9116   73.8152   -7.9681 O.3     1  UNL1       -0.3308
     12 O          20.5434   77.0568   -8.9845 O.3     1  UNL1       -0.3794
     13 H          17.9540   76.8644   -8.1940 H       1  UNL1        0.2106
     14 H          19.8062   77.6744   -8.8891 H       1  UNL1        0.2105
     15 N          18.6820   72.9592   -8.0745 N.ar    1  UNL1       -0.2551
     16 C          18.4023   71.9585   -8.9276 C.ar    1  UNL1        0.3323
     17 N          17.5797   70.9539   -8.5719 N.ar    1  UNL1       -0.2743
     18 C          17.0125   70.9409   -7.3488 C.ar    1  UNL1        0.2626
     19 C          17.2936   71.9913   -6.4429 C.ar    1  UNL1        0.0795
     20 C          18.1264   72.9836   -6.8237 C.ar    1  UNL1        0.0869
     21 O          18.9062   71.9561  -10.0343 O.2     1  UNL1       -0.2464
     22 O          16.2648   70.0357   -7.0279 O.2     1  UNL1       -0.2670
     23 H          17.3928   70.2378   -9.1983 H       1  UNL1        0.1734
     24 O          22.1476   74.8112   -3.5658 O.3     1  UNL1       -0.2703
     25 P          22.7599   74.5482   -2.1012 P.3     1  UNL1        0.2208
     26 O          22.0674   75.4073   -1.1156 O.2     1  UNL1       -0.5170
     27 O          24.3317   74.8970   -2.1052 O.3     1  UNL1       -0.4371
     28 O          22.5558   73.0023   -1.7025 O.3     1  UNL1       -0.2865
     29 C          21.2726   72.9001   -1.0827 C.3     1  UNL1        0.2611
     30 C          21.3164   71.8132   -0.0071 C.3     1  UNL1        0.1582
     31 C          21.7117   70.4818   -0.6556 C.3     1  UNL1        0.1625
     32 C          20.7604   70.2045   -1.8244 C.3     1  UNL1        0.1686
     33 C          20.7608   71.4116   -2.7647 C.3     1  UNL1        0.1760
     34 O          21.6111   69.4314    0.3076 O.3     1  UNL1       -0.3801
     35 O          21.1999   69.0444   -2.5335 O.3     1  UNL1       -0.3794
     36 O          20.2962   72.5664   -2.0668 O.3     1  UNL1       -0.3263
     37 H          21.8683   68.6146   -0.1418 H       1  UNL1        0.2105
     38 H          20.5749   68.9068   -3.2595 H       1  UNL1        0.2105
     39 C          21.9370   72.2499    2.3077 C.2     1  UNL1        0.2231
     40 C          22.9525   72.6215    3.3580 C.3     1  UNL1        0.0946
     41 N          22.3027   72.1736    1.0136 N.am    1  UNL1       -0.2994
     42 O          20.7903   72.0203    2.6276 O.2     1  UNL1       -0.2751
     43 H          23.2203   72.3576    0.7573 H       1  UNL1        0.1496
     44 C          19.8383   71.1315   -3.9528 C.3     1  UNL1        0.1693
     45 O          19.9357   69.7533   -4.3174 O.3     1  UNL1       -0.3794
     46 H          19.3408   69.6196   -5.0677 H       1  UNL1        0.2105
@<TRIPOS>BOND
     1    29    30    1
     2    29    28    1
     3    29    36    1
     4    30    31    1
     5    30    41    1
     6    31    32    1
     7    31    34    1
     8    32    33    1
     9    32    35    1
    10    33    44    1
    11    33    36    1
    12    44    45    1
    13    39    40    1
    14    39    41   am
    15    39    42    2
    16    41    43    1
    17    28    25    1
    18    34    37    1
    19    35    38    1
    20    45    46    1
    21    15    16   ar
    22    15    20   ar
    23    15     6    1
    24    16    17   ar
    25    16    21    2
    26    17    18   ar
    27    17    23    1
    28    18    19   ar
    29    18    22    2
    30    19    20   ar
    31     6     7    1
    32     6    11    1
    33     7     8    1
    34     7     9    1
    35     8    13    1
    36     9    10    1
    37     9    12    1
    38    10    11    1
    39    10     5    1
    40    12    14    1
    41     5     4    1
    42     4     1    1
    43     1     2    2
    44     1     3    1
    45     1    24    1
    46    24    25    1
    47    25    26    2
    48    25    27    1
@<TRIPOS>MOLECULE
UD1
 46 48 0 0 0
SMALL
GASTEIGER

@<TRIPOS>ATOM
      1 P          22.3662   73.1541   -3.1051 P.3     1  UNL1        0.2189
      2 O          22.1371   74.3215   -3.9847 O.2     1  UNL1       -0.5170
      3 O          22.8567   71.9025   -3.9914 O.3     1  UNL1       -0.4371
      4 O          20.9949   72.7728   -2.3522 O.3     1  UNL1       -0.3112
      5 C          20.5896   71.4973   -2.8514 C.3     1  UNL1        0.1811
      6 C          18.2221   71.1678   -5.5373 C.3     1  UNL1        0.2383
      7 C          18.0947   69.8438   -4.7429 C.3     1  UNL1        0.1895
      8 O          16.7665   69.3256   -4.8228 O.3     1  UNL1       -0.3779
      9 C          18.4256   70.2981   -3.2975 C.3     1  UNL1        0.1713
     10 C          19.2037   71.6145   -3.4877 C.3     1  UNL1        0.1764
     11 O          19.3324   71.8369   -4.9023 O.3     1  UNL1       -0.3308
     12 O          17.2243   70.5221   -2.5561 O.3     1  UNL1       -0.3794
     13 H          16.7546   68.5051   -4.3107 H       1  UNL1        0.2106
     14 H          16.7549   69.6779   -2.5233 H       1  UNL1        0.2105
     15 N          18.5167   70.9022   -6.9458 N.ar    1  UNL1       -0.2551
     16 C          17.5077   70.6986   -7.8107 C.ar    1  UNL1        0.3323
     17 N          17.7491   70.4561   -9.1127 N.ar    1  UNL1       -0.2743
     18 C          19.0162   70.4042   -9.5706 C.ar    1  UNL1        0.2626
     19 C          20.0880   70.6107   -8.6699 C.ar    1  UNL1        0.0795
     20 C          19.8174   70.8574   -7.3702 C.ar    1  UNL1        0.0869
     21 O          16.3595   70.7424   -7.4128 O.2     1  UNL1       -0.2464
     22 O          19.2357   70.1802  -10.7467 O.2     1  UNL1       -0.2670
     23 H          17.0090   70.3163   -9.7233 H       1  UNL1        0.1734
     24 O          23.4936   73.5161   -2.0157 O.3     1  UNL1       -0.2703
     25 P          22.8616   74.6345   -1.0467 P.3     1  UNL1        0.2208
     26 O          21.4413   74.8488   -1.4014 O.2     1  UNL1       -0.5170
     27 O          23.6713   76.0153   -1.2198 O.3     1  UNL1       -0.4371
     28 O          22.9643   74.1419    0.4821 O.3     1  UNL1       -0.2865
     29 C          21.6408   73.7995    0.8971 C.3     1  UNL1        0.2611
     30 C          21.5660   73.8324    2.4246 C.3     1  UNL1        0.1582
     31 C          22.5861   72.8422    2.9978 C.3     1  UNL1        0.1625
     32 C          22.3459   71.4685    2.3628 C.3     1  UNL1        0.1686
     33 C          22.3649   71.6134    0.8396 C.3     1  UNL1        0.1760
     34 O          22.4234   72.7535    4.4146 O.3     1  UNL1       -0.3801
     35 O          23.3760   70.5665    2.7713 O.3     1  UNL1       -0.3794
     36 O          21.3196   72.4925    0.4259 O.3     1  UNL1       -0.3263
     37 H          23.0832   72.1220    4.7326 H       1  UNL1        0.2105
     38 H          23.1870   69.7164    2.3492 H       1  UNL1        0.2105
     39 C          21.1684   75.7146    3.9191 C.2     1  UNL1        0.2231
     40 C          21.4835   77.1050    4.4089 C.3     1  UNL1        0.0946
     41 N          21.8721   75.1829    2.9011 N.am    1  UNL1       -0.2994
     42 O          20.2807   75.0746    4.4412 O.2     1  UNL1       -0.2751
     43 H          22.5823   75.6950    2.4830 H       1  UNL1        0.1496
     44 C          22.1583   70.2411    0.1953 C.3     1  UNL1        0.1693
     45 O          23.3959   69.5268    0.1877 O.3     1  UNL1       -0.3794
     46 H          23.2221   68.6703   -0.2257 H       1  UNL1        0.2105
@<TRIPOS>BOND
     1    29    30    1
     2    29    28    1
     3    29    36    1
     4    30    31    1
     5    30    41    1
     6    31    32    1
     7    31    34    1
     8    32    33    1
     9    32    35    1
    10    33    44    1
    11    33    36    1
    12    44    45    1
    13    39    40    1
    14    39    41   am
    15    39    42    2
    16    41    43    1
    17    28    25    1
    18    34    37    1
    19    35    38    1
    20    45    46    1
    21    15    16   ar
    22    15    20   ar
    23    15     6    1
    24    16    17   ar
    25    16    21    2
    26    17    18   ar
    27    17    23    1
    28    18    19   ar
    29    18    22    2
    30    19    20   ar
    31     6     7    1
    32     6    11    1
    33     7     8    1
    34     7     9    1
    35     8    13    1
    36     9    10    1
    37     9    12    1
    38    10    11    1
    39    10     5    1
    40    12    14    1
    41     5     4    1
    42     4     1    1
    43     1     2    2
    44     1     3    1
    45     1    24    1
    46    24    25    1
    47    25    26    2
    48    25    27    1
@<TRIPOS>MOLECULE
UD1
 46 48 0 0 0
SMALL
GASTEIGER

@<TRIPOS>ATOM
      1 P          23.1897   73.3948   -3.4563 P.3     1  UNL1        0.2189
      2 O          24.5593   73.5857   -3.9823 O.2     1  UNL1       -0.5170
      3 O          22.3747   74.7790   -3.5665 O.3     1  UNL1       -0.4371
      4 O          23.2665   72.9397   -1.9137 O.3     1  UNL1       -0.3112
      5 C          22.8654   74.0645   -1.1299 C.3     1  UNL1        0.1811
      6 C          20.8075   73.7348    1.7999 C.3     1  UNL1        0.2383
      7 C          20.5185   75.1659    1.2815 C.3     1  UNL1        0.1895
      8 O          19.1821   75.5619    1.5922 O.3     1  UNL1       -0.3779
      9 C          20.7053   75.0017   -0.2492 C.3     1  UNL1        0.1713
     10 C          21.5700   73.7337   -0.3870 C.3     1  UNL1        0.1764
     11 O          21.8720   73.2733    0.9412 O.3     1  UNL1       -0.3308
     12 O          19.4407   74.8248   -0.8915 O.3     1  UNL1       -0.3794
     13 H          19.0672   76.4571    1.2447 H       1  UNL1        0.2106
     14 H          18.9257   75.6243   -0.7190 H       1  UNL1        0.2105
     15 N          21.2470   73.7667    3.1953 N.ar    1  UNL1       -0.2551
     16 C          20.3448   73.6224    4.1815 C.ar    1  UNL1        0.3323
     17 N          20.7212   73.6437    5.4738 N.ar    1  UNL1       -0.2743
     18 C          22.0171   73.8207    5.8013 C.ar    1  UNL1        0.2626
     19 C          22.9766   73.9799    4.7732 C.ar    1  UNL1        0.0795
     20 C          22.5724   73.9491    3.4852 C.ar    1  UNL1        0.0869
     21 O          19.1723   73.4619    3.9021 O.2     1  UNL1       -0.2464
     22 O          22.3579   73.8449    6.9695 O.2     1  UNL1       -0.2670
     23 H          20.0577   73.5333    6.1722 H       1  UNL1        0.1734
     24 O          22.4389   72.2591   -4.3139 O.3     1  UNL1       -0.2703
     25 P          21.8517   72.9803   -5.6271 P.3     1  UNL1        0.2208
     26 O          22.8756   72.9697   -6.6950 O.2     1  UNL1       -0.5170
     27 O          21.4604   74.5018   -5.2750 O.3     1  UNL1       -0.4371
     28 O          20.5414   72.1939   -6.1322 O.3     1  UNL1       -0.2865
     29 C          19.4195   73.0309   -5.8459 C.3     1  UNL1        0.2611
     30 C          18.3206   72.1949   -5.1876 C.3     1  UNL1        0.1582
     31 C          17.9200   71.0584   -6.1350 C.3     1  UNL1        0.1625
     32 C          17.5543   71.6607   -7.4958 C.3     1  UNL1        0.1686
     33 C          18.7126   72.5347   -7.9814 C.3     1  UNL1        0.1760
     34 O          16.7941   70.3617   -5.5979 O.3     1  UNL1       -0.3801
     35 O          17.3196   70.6104   -8.4357 O.3     1  UNL1       -0.3794
     36 O          18.9318   73.6009   -7.0586 O.3     1  UNL1       -0.3263
     37 H          16.5769   69.6573   -6.2240 H       1  UNL1        0.2105
     38 H          17.0939   71.0328   -9.2766 H       1  UNL1        0.2105
     39 C          19.4330   70.4341   -3.9242 C.2     1  UNL1        0.2231
     40 C          19.9455   69.8558   -2.6299 C.3     1  UNL1        0.0946
     41 N          18.8191   71.6329   -3.9306 N.am    1  UNL1       -0.2994
     42 O          19.5727   69.8196   -4.9601 O.2     1  UNL1       -0.2751
     43 H          18.7069   72.1247   -3.1017 H       1  UNL1        0.1496
     44 C          18.3707   73.1152   -9.3552 C.3     1  UNL1        0.1693
     45 O          18.6116   72.1303  -10.3623 O.3     1  UNL1       -0.3794
     46 H          18.3845   72.5357  -11.2101 H       1  UNL1        0.2105
@<TRIPOS>BOND
     1    29    30    1
     2    29    28    1
     3    29    36    1
     4    30    31    1
     5    30    41    1
     6    31    32    1
     7    31    34    1
     8    32    33    1
     9    32    35    1
    10    33    44    1
    11    33    36    1
    12    44    45    1
    13    39    40    1
    14    39    41   am
    15    39    42    2
    16    41    43    1
    17    28    25    1
    18    34    37    1
    19    35    38    1
    20    45    46    1
    21    15    16   ar
    22    15    20   ar
    23    15     6    1
    24    16    17   ar
    25    16    21    2
    26    17    18   ar
    27    17    23    1
    28    18    19   ar
    29    18    22    2
    30    19    20   ar
    31     6     7    1
    32     6    11    1
    33     7     8    1
    34     7     9    1
    35     8    13    1
    36     9    10    1
    37     9    12    1
    38    10    11    1
    39    10     5    1
    40    12    14    1
    41     5     4    1
    42     4     1    1
    43     1     2    2
    44     1     3    1
    45     1    24    1
    46    24    25    1
    47    25    26    2
    48    25    27    1
@<TRIPOS>MOLECULE
UD1
 46 48 0 0 0
SMALL
GASTEIGER

@<TRIPOS>ATOM
      1 P          22.4053   70.9377   -2.1638 P.3     1  UNL1        0.2189
      2 O          23.4541   70.6894   -3.1773 O.2     1  UNL1       -0.5170
      3 O          21.5156   69.6089   -1.9754 O.3     1  UNL1       -0.4371
      4 O          21.4630   72.1483   -2.6530 O.3     1  UNL1       -0.3112
      5 C          20.7716   71.6906   -3.8162 C.3     1  UNL1        0.1811
      6 C          17.2682   71.7504   -4.6222 C.3     1  UNL1        0.2383
      7 C          17.6940   70.2783   -4.8504 C.3     1  UNL1        0.1895
      8 O          16.6106   69.3861   -4.5868 O.3     1  UNL1       -0.3779
      9 C          18.8246   70.1004   -3.8039 C.3     1  UNL1        0.1713
     10 C          19.2830   71.5398   -3.4996 C.3     1  UNL1        0.1764
     11 O          18.5136   72.4213   -4.3351 O.3     1  UNL1       -0.3308
     12 O          18.3203   69.4692   -2.6249 O.3     1  UNL1       -0.3794
     13 H          16.9396   68.4908   -4.7471 H       1  UNL1        0.2106
     14 H          17.9953   68.5989   -2.8913 H       1  UNL1        0.2105
     15 N          16.6490   72.3046   -5.8267 N.ar    1  UNL1       -0.2551
     16 C          17.0289   71.8587   -7.0367 C.ar    1  UNL1        0.3323
     17 N          16.4737   72.3477   -8.1614 N.ar    1  UNL1       -0.2743
     18 C          15.5276   73.3058   -8.0910 C.ar    1  UNL1        0.2626
     19 C          15.1226   73.7886   -6.8239 C.ar    1  UNL1        0.0795
     20 C          15.6922   73.2768   -5.7117 C.ar    1  UNL1        0.0869
     21 O          17.8809   70.9948   -7.1165 O.2     1  UNL1       -0.2464
     22 O          15.0284   73.7521   -9.1074 O.2     1  UNL1       -0.2670
     23 H          16.7564   72.0110   -9.0256 H       1  UNL1        0.1734
     24 O          23.0942   71.3266   -0.7627 O.3     1  UNL1       -0.2703
     25 P          21.9410   71.2573    0.3574 P.3     1  UNL1        0.2208
     26 O          21.7143   69.8477    0.7452 O.2     1  UNL1       -0.5170
     27 O          20.5779   71.8758   -0.2357 O.3     1  UNL1       -0.4371
     28 O          22.3946   72.1030    1.6495 O.3     1  UNL1       -0.2865
     29 C          21.7947   73.3942    1.5314 C.3     1  UNL1        0.2611
     30 C          22.8882   74.4410    1.3115 C.3     1  UNL1        0.1582
     31 C          23.8631   74.4034    2.4938 C.3     1  UNL1        0.1625
     32 C          23.0645   74.5575    3.7926 C.3     1  UNL1        0.1686
     33 C          21.9594   73.4998    3.8266 C.3     1  UNL1        0.1760
     34 O          24.8015   75.4741    2.3749 O.3     1  UNL1       -0.3801
     35 O          23.9340   74.3786    4.9123 O.3     1  UNL1       -0.3794
     36 O          21.0734   73.6926    2.7247 O.3     1  UNL1       -0.3263
     37 H          25.3939   75.4124    3.1369 H       1  UNL1        0.2105
     38 H          23.3917   74.4828    5.7070 H       1  UNL1        0.2105
     39 C          23.9727   75.1441   -0.7534 C.2     1  UNL1        0.2231
     40 C          24.7140   74.8376   -2.0296 C.3     1  UNL1        0.0946
     41 N          23.6088   74.1437    0.0719 N.am    1  UNL1       -0.2994
     42 O          23.7030   76.2917   -0.4696 O.2     1  UNL1       -0.2751
     43 H          23.8243   73.2253   -0.1551 H       1  UNL1        0.1496
     44 C          21.1762   73.6242    5.1351 C.3     1  UNL1        0.1693
     45 O          19.8466   73.1369    4.9431 O.3     1  UNL1       -0.3794
     46 H          19.3884   73.2334    5.7889 H       1  UNL1        0.2105
@<TRIPOS>BOND
     1    29    30    1
     2    29    28    1
     3    29    36    1
     4    30    31    1
     5    30    41    1
     6    31    32    1
     7    31    34    1
     8    32    33    1
     9    32    35    1
    10    33    44    1
    11    33    36    1
    12    44    45    1
    13    39    40    1
    14    39    41   am
    15    39    42    2
    16    41    43    1
    17    28    25    1
    18    34    37    1
    19    35    38    1
    20    45    46    1
    21    15    16   ar
    22    15    20   ar
    23    15     6    1
    24    16    17   ar
    25    16    21    2
    26    17    18   ar
    27    17    23    1
    28    18    19   ar
    29    18    22    2
    30    19    20   ar
    31     6     7    1
    32     6    11    1
    33     7     8    1
    34     7     9    1
    35     8    13    1
    36     9    10    1
    37     9    12    1
    38    10    11    1
    39    10     5    1
    40    12    14    1
    41     5     4    1
    42     4     1    1
    43     1     2    2
    44     1     3    1
    45     1    24    1
    46    24    25    1
    47    25    26    2
    48    25    27    1
@<TRIPOS>MOLECULE
UD1
 46 48 0 0 0
SMALL
GASTEIGER

@<TRIPOS>ATOM
      1 P          22.0980   71.6917   -2.6612 P.3     1  UNL1        0.2189
      2 O          22.7335   72.8846   -2.0596 O.2     1  UNL1       -0.5170
      3 O          23.2348   70.7269   -3.2688 O.3     1  UNL1       -0.4371
      4 O          21.1007   72.1520   -3.8386 O.3     1  UNL1       -0.3112
      5 C          20.4969   70.9658   -4.3569 C.3     1  UNL1        0.1811
      6 C          17.3866   71.8941   -5.9034 C.3     1  UNL1        0.2383
      7 C          17.5388   70.3838   -6.2137 C.3     1  UNL1        0.1895
      8 O          16.2625   69.7505   -6.3094 O.3     1  UNL1       -0.3779
      9 C          18.3182   69.8736   -4.9737 C.3     1  UNL1        0.1713
     10 C          18.9782   71.1417   -4.3985 C.3     1  UNL1        0.1764
     11 O          18.6363   72.2356   -5.2668 O.3     1  UNL1       -0.3308
     12 O          17.4220   69.2933   -4.0235 O.3     1  UNL1       -0.3794
     13 H          16.4267   68.8173   -6.5034 H       1  UNL1        0.2106
     14 H          16.9977   68.5435   -4.4616 H       1  UNL1        0.2105
     15 N          17.2086   72.6622   -7.1362 N.ar    1  UNL1       -0.2551
     16 C          18.2644   72.8929   -7.9359 C.ar    1  UNL1        0.3323
     17 N          18.1292   73.5929   -9.0778 N.ar    1  UNL1       -0.2743
     18 C          16.9256   74.0847   -9.4348 C.ar    1  UNL1        0.2626
     19 C          15.8069   73.8544   -8.5992 C.ar    1  UNL1        0.0795
     20 C          15.9697   73.1445   -7.4621 C.ar    1  UNL1        0.0869
     21 O          19.3564   72.4557   -7.6275 O.2     1  UNL1       -0.2464
     22 O          16.8032   74.7219  -10.4646 O.2     1  UNL1       -0.2670
     23 H          18.9006   73.7457   -9.6450 H       1  UNL1        0.1734
     24 O          21.2673   70.8999   -1.5335 O.3     1  UNL1       -0.2703
     25 P          22.2427   70.7406   -0.2636 P.3     1  UNL1        0.2208
     26 O          23.5832   70.3141   -0.7219 O.2     1  UNL1       -0.5170
     27 O          21.6421   69.6338    0.7397 O.3     1  UNL1       -0.4371
     28 O          22.3613   72.1503    0.5038 O.3     1  UNL1       -0.2865
     29 C          21.1549   72.3186    1.2504 C.3     1  UNL1        0.2611
     30 C          20.5272   73.6685    0.8983 C.3     1  UNL1        0.1582
     31 C          21.5252   74.7855    1.2237 C.3     1  UNL1        0.1625
     32 C          21.9716   74.6345    2.6818 C.3     1  UNL1        0.1686
     33 C          22.4933   73.2124    2.8986 C.3     1  UNL1        0.1760
     34 O          20.8982   76.0562    1.0405 O.3     1  UNL1       -0.3801
     35 O          23.0105   75.5742    2.9633 O.3     1  UNL1       -0.3794
     36 O          21.4501   72.2723    2.6447 O.3     1  UNL1       -0.3263
     37 H          21.5600   76.7279    1.2552 H       1  UNL1        0.2105
     38 H          23.2617   75.4445    3.8888 H       1  UNL1        0.2105
     39 C          19.0424   74.2421   -0.9457 C.2     1  UNL1        0.2231
     40 C          18.7091   74.2744   -2.4155 C.3     1  UNL1        0.0946
     41 N          20.2033   73.7006   -0.5294 N.am    1  UNL1       -0.2994
     42 O          18.2649   74.7030   -0.1375 O.2     1  UNL1       -0.2751
     43 H          20.8255   73.3314   -1.1760 H       1  UNL1        0.1496
     44 C          22.9720   73.0610    4.3439 C.3     1  UNL1        0.1693
     45 O          21.9451   72.4455    5.1242 O.3     1  UNL1       -0.3794
     46 H          22.2864   72.3692    6.0255 H       1  UNL1        0.2105
@<TRIPOS>BOND
     1    29    30    1
     2    29    28    1
     3    29    36    1
     4    30    31    1
     5    30    41    1
     6    31    32    1
     7    31    34    1
     8    32    33    1
     9    32    35    1
    10    33    44    1
    11    33    36    1
    12    44    45    1
    13    39    40    1
    14    39    41   am
    15    39    42    2
    16    41    43    1
    17    28    25    1
    18    34    37    1
    19    35    38    1
    20    45    46    1
    21    15    16   ar
    22    15    20   ar
    23    15     6    1
    24    16    17   ar
    25    16    21    2
    26    17    18   ar
    27    17    23    1
    28    18    19   ar
    29    18    22    2
    30    19    20   ar
    31     6     7    1
    32     6    11    1
    33     7     8    1
    34     7     9    1
    35     8    13    1
    36     9    10    1
    37     9    12    1
    38    10    11    1
    39    10     5    1
    40    12    14    1
    41     5     4    1
    42     4     1    1
    43     1     2    2
    44     1     3    1
    45     1    24    1
    46    24    25    1
    47    25    26    2
    48    25    27    1
@<TRIPOS>MOLECULE
UD1
 46 48 0 0 0
SMALL
GASTEIGER

@<TRIPOS>ATOM
      1 P          20.3039   70.2507   -2.5315 P.3     1  UNL1        0.2189
      2 O          21.5606   69.5629   -2.9007 O.2     1  UNL1       -0.5170
      3 O          19.1957   69.1582   -2.1180 O.3     1  UNL1       -0.4371
      4 O          19.7711   71.1049   -3.7882 O.3     1  UNL1       -0.3112
      5 C          18.3980   70.7572   -3.9727 C.3     1  UNL1        0.1811
      6 C          18.6874   72.5823   -7.0570 C.3     1  UNL1        0.2383
      7 C          18.5653   71.1006   -7.4927 C.3     1  UNL1        0.1895
      8 O          17.9194   70.9925   -8.7617 O.3     1  UNL1       -0.3779
      9 C          17.6802   70.5024   -6.3685 C.3     1  UNL1        0.1713
     10 C          17.8456   71.4893   -5.1967 C.3     1  UNL1        0.1764
     11 O          18.7717   72.5052   -5.6180 O.3     1  UNL1       -0.3308
     12 O          16.3153   70.4375   -6.7875 O.3     1  UNL1       -0.3794
     13 H          17.8756   70.0500   -8.9744 H       1  UNL1        0.2106
     14 H          16.2870   69.8540   -7.5574 H       1  UNL1        0.2105
     15 N          19.8972   73.1893   -7.6132 N.ar    1  UNL1       -0.2551
     16 C          19.8025   74.3114   -8.3475 C.ar    1  UNL1        0.3323
     17 N          20.8990   74.8937   -8.8681 N.ar    1  UNL1       -0.2743
     18 C          22.1168   74.3510   -8.6671 C.ar    1  UNL1        0.2626
     19 C          22.2302   73.1665   -7.9010 C.ar    1  UNL1        0.0795
     20 C          21.1147   72.6063   -7.3861 C.ar    1  UNL1        0.0869
     21 O          18.7111   74.8129   -8.5374 O.2     1  UNL1       -0.2464
     22 O          23.1083   74.8739   -9.1414 O.2     1  UNL1       -0.2670
     23 H          20.8126   75.7055   -9.3912 H       1  UNL1        0.1734
     24 O          20.5765   71.2366   -1.2896 O.3     1  UNL1       -0.2703
     25 P          21.9305   70.7305   -0.5827 P.3     1  UNL1        0.2208
     26 O          22.9740   70.5194   -1.6099 O.2     1  UNL1       -0.5170
     27 O          21.6489   69.3450    0.1877 O.3     1  UNL1       -0.4371
     28 O          22.4325   71.8372    0.4727 O.3     1  UNL1       -0.2865
     29 C          21.2862   72.6040    0.8459 C.3     1  UNL1        0.2611
     30 C          21.5112   74.0677    0.4628 C.3     1  UNL1        0.1582
     31 C          22.7647   74.5858    1.1768 C.3     1  UNL1        0.1625
     32 C          22.6183   74.3200    2.6788 C.3     1  UNL1        0.1686
     33 C          22.3128   72.8364    2.8950 C.3     1  UNL1        0.1760
     34 O          22.9014   75.9892    0.9465 O.3     1  UNL1       -0.3801
     35 O          23.8354   74.6609    3.3453 O.3     1  UNL1       -0.3794
     36 O          21.0836   72.4988    2.2535 O.3     1  UNL1       -0.3263
     37 H          23.7004   76.2723    1.4121 H       1  UNL1        0.2105
     38 H          23.6999   74.4779    4.2859 H       1  UNL1        0.2105
     39 C          22.9333   74.1607   -1.5129 C.2     1  UNL1        0.2231
     40 C          23.1205   74.2689   -3.0047 C.3     1  UNL1        0.0946
     41 N          21.6936   74.1723   -0.9864 N.am    1  UNL1       -0.2994
     42 O          23.8990   74.0637   -0.7861 O.2     1  UNL1       -0.2751
     43 H          20.9206   74.2501   -1.5678 H       1  UNL1        0.1496
     44 C          22.1968   72.5540    4.3943 C.3     1  UNL1        0.1693
     45 O          20.8990   72.9381    4.8527 O.3     1  UNL1       -0.3794
     46 H          20.8680   72.7444    5.7994 H       1  UNL1        0.2105
@<TRIPOS>BOND
     1    29    30    1
     2    29    28    1
     3    29    36    1
     4    30    31    1
     5    30    41    1
     6    31    32    1
     7    31    34    1
     8    32    33    1
     9    32    35    1
    10    33    44    1
    11    33    36    1
    12    44    45    1
    13    39    40    1
    14    39    41   am
    15    39    42    2
    16    41    43    1
    17    28    25    1
    18    34    37    1
    19    35    38    1
    20    45    46    1
    21    15    16   ar
    22    15    20   ar
    23    15     6    1
    24    16    17   ar
    25    16    21    2
    26    17    18   ar
    27    17    23    1
    28    18    19   ar
    29    18    22    2
    30    19    20   ar
    31     6     7    1
    32     6    11    1
    33     7     8    1
    34     7     9    1
    35     8    13    1
    36     9    10    1
    37     9    12    1
    38    10    11    1
    39    10     5    1
    40    12    14    1
    41     5     4    1
    42     4     1    1
    43     1     2    2
    44     1     3    1
    45     1    24    1
    46    24    25    1
    47    25    26    2
    48    25    27    1
@<TRIPOS>MOLECULE
UD1
 46 48 0 0 0
SMALL
GASTEIGER

@<TRIPOS>ATOM
      1 P          21.3151   71.9690   -2.6069 P.3     1  UNL1        0.2189
      2 O          21.3502   70.5388   -2.9834 O.2     1  UNL1       -0.5170
      3 O          22.7731   72.6170   -2.8233 O.3     1  UNL1       -0.4371
      4 O          20.8926   72.1057   -1.0590 O.3     1  UNL1       -0.3112
      5 C          21.6507   73.1882   -0.5171 C.3     1  UNL1        0.1811
      6 C          23.0452   73.3281    2.7939 C.3     1  UNL1        0.2383
      7 C          21.7747   72.4545    2.9444 C.3     1  UNL1        0.1895
      8 O          21.9395   71.4872    3.9820 O.3     1  UNL1       -0.3779
      9 C          21.6854   71.7678    1.5568 C.3     1  UNL1        0.1713
     10 C          22.5188   72.6782    0.6342 C.3     1  UNL1        0.1764
     11 O          22.9802   73.7858    1.4265 O.3     1  UNL1       -0.3308
     12 O          22.2450   70.4538    1.6118 O.3     1  UNL1       -0.3794
     13 H          21.1176   70.9791    4.0243 H       1  UNL1        0.2106
     14 H          21.7180   69.9522    2.2481 H       1  UNL1        0.2105
     15 N          23.0093   74.4610    3.7196 N.ar    1  UNL1       -0.2551
     16 C          22.1028   75.4377    3.5423 C.ar    1  UNL1        0.3323
     17 N          22.0442   76.4895    4.3805 N.ar    1  UNL1       -0.2743
     18 C          22.9063   76.5845    5.4128 C.ar    1  UNL1        0.2626
     19 C          23.8697   75.5662    5.6076 C.ar    1  UNL1        0.0795
     20 C          23.9028   74.5197    4.7549 C.ar    1  UNL1        0.0869
     21 O          21.3184   75.3663    2.6159 O.2     1  UNL1       -0.2464
     22 O          22.8574   77.5374    6.1685 O.2     1  UNL1       -0.2670
     23 H          21.3807   77.1826    4.2405 H       1  UNL1        0.1734
     24 O          20.2424   72.7397   -3.5257 O.3     1  UNL1       -0.2703
     25 P          20.9815   73.0852   -4.9127 P.3     1  UNL1        0.2208
     26 O          22.1605   72.2065   -5.0755 O.2     1  UNL1       -0.5170
     27 O          21.4572   74.6233   -4.8995 O.3     1  UNL1       -0.4371
     28 O          19.9640   72.8502   -6.1375 O.3     1  UNL1       -0.2865
     29 C          20.1562   71.5068   -6.5840 C.3     1  UNL1        0.2611
     30 C          20.2184   71.4866   -8.1123 C.3     1  UNL1        0.1582
     31 C          18.9139   72.0624   -8.6747 C.3     1  UNL1        0.1625
     32 C          17.7360   71.2990   -8.0600 C.3     1  UNL1        0.1686
     33 C          17.8595   71.3359   -6.5353 C.3     1  UNL1        0.1760
     34 O          18.8973   71.9118  -10.0955 O.3     1  UNL1       -0.3801
     35 O          16.5087   71.9139   -8.4566 O.3     1  UNL1       -0.3794
     36 O          19.0714   70.6980   -6.1341 O.3     1  UNL1       -0.3263
     37 H          18.0616   72.2865  -10.4064 H       1  UNL1        0.2105
     38 H          15.7953   71.4035   -8.0479 H       1  UNL1        0.2105
     39 C          21.1684   73.5986   -8.8681 C.2     1  UNL1        0.2231
     40 C          22.3327   74.4335   -9.3370 C.3     1  UNL1        0.0946
     41 N          21.3492   72.2982   -8.5674 N.am    1  UNL1       -0.2994
     42 O          20.0684   74.0975   -8.7622 O.2     1  UNL1       -0.2751
     43 H          22.2294   71.8987   -8.6523 H       1  UNL1        0.1496
     44 C          16.6700   70.6037   -5.9107 C.3     1  UNL1        0.1693
     45 O          16.1882   69.6134   -6.8212 O.3     1  UNL1       -0.3794
     46 H          15.4410   69.1769   -6.3902 H       1  UNL1        0.2105
@<TRIPOS>BOND
     1    29    30    1
     2    29    28    1
     3    29    36    1
     4    30    31    1
     5    30    41    1
     6    31    32    1
     7    31    34    1
     8    32    33    1
     9    32    35    1
    10    33    44    1
    11    33    36    1
    12    44    45    1
    13    39    40    1
    14    39    41   am
    15    39    42    2
    16    41    43    1
    17    28    25    1
    18    34    37    1
    19    35    38    1
    20    45    46    1
    21    15    16   ar
    22    15    20   ar
    23    15     6    1
    24    16    17   ar
    25    16    21    2
    26    17    18   ar
    27    17    23    1
    28    18    19   ar
    29    18    22    2
    30    19    20   ar
    31     6     7    1
    32     6    11    1
    33     7     8    1
    34     7     9    1
    35     8    13    1
    36     9    10    1
    37     9    12    1
    38    10    11    1
    39    10     5    1
    40    12    14    1
    41     5     4    1
    42     4     1    1
    43     1     2    2
    44     1     3    1
    45     1    24    1
    46    24    25    1
    47    25    26    2
    48    25    27    1
@<TRIPOS>MOLECULE
UD1
 46 48 0 0 0
SMALL
GASTEIGER

@<TRIPOS>ATOM
      1 P          22.1397   71.6780   -2.9465 P.3     1  UNL1        0.2189
      2 O          22.2226   70.3277   -2.3477 O.2     1  UNL1       -0.5170
      3 O          23.6095   72.1564   -3.3976 O.3     1  UNL1       -0.4371
      4 O          21.5500   72.7107   -1.8608 O.3     1  UNL1       -0.3112
      5 C          22.6690   73.2700   -1.1713 C.3     1  UNL1        0.1811
      6 C          22.7466   73.1298    2.4206 C.3     1  UNL1        0.2383
      7 C          21.2924   72.7464    2.0485 C.3     1  UNL1        0.1895
      8 O          20.7402   71.8443    3.0079 O.3     1  UNL1       -0.3779
      9 C          21.4806   72.0481    0.6766 C.3     1  UNL1        0.1713
     10 C          22.8424   72.5672    0.1760 C.3     1  UNL1        0.1764
     11 O          23.3327   73.4997    1.1544 O.3     1  UNL1       -0.3308
     12 O          21.5076   70.6282    0.8375 O.3     1  UNL1       -0.3794
     13 H          19.8383   71.6465    2.7199 H       1  UNL1        0.2106
     14 H          20.6524   70.3728    1.2083 H       1  UNL1        0.2105
     15 N          22.7642   74.2618    3.3478 N.ar    1  UNL1       -0.2551
     16 C          22.4019   75.4824    2.9162 C.ar    1  UNL1        0.3323
     17 N          22.4049   76.5408    3.7480 N.ar    1  UNL1       -0.2743
     18 C          22.7829   76.3935    5.0339 C.ar    1  UNL1        0.2626
     19 C          23.1724   75.1152    5.4999 C.ar    1  UNL1        0.0795
     20 C          23.1551   74.0697    4.6456 C.ar    1  UNL1        0.0869
     21 O          22.0584   75.6312    1.7593 O.2     1  UNL1       -0.2464
     22 O          22.7905   77.3507    5.7856 O.2     1  UNL1       -0.2670
     23 H          22.1359   77.4131    3.4209 H       1  UNL1        0.1734
     24 O          21.1701   71.6374   -4.2299 O.3     1  UNL1       -0.2703
     25 P          20.5441   73.1115   -4.3866 P.3     1  UNL1        0.2208
     26 O          21.6328   74.1132   -4.3766 O.2     1  UNL1       -0.5170
     27 O          19.5384   73.4010   -3.1631 O.3     1  UNL1       -0.4371
     28 O          19.7382   73.2088   -5.7763 O.3     1  UNL1       -0.2865
     29 C          18.3485   73.1208   -5.4566 C.3     1  UNL1        0.2611
     30 C          17.8366   71.7231   -5.8092 C.3     1  UNL1        0.1582
     31 C          18.0654   71.4676   -7.3031 C.3     1  UNL1        0.1625
     32 C          17.4322   72.6138   -8.0990 C.3     1  UNL1        0.1686
     33 C          17.9770   73.9444   -7.5757 C.3     1  UNL1        0.1760
     34 O          17.4582   70.2290   -7.6756 O.3     1  UNL1       -0.3801
     35 O          17.7595   72.4728   -9.4827 O.3     1  UNL1       -0.3794
     36 O          17.6281   74.1009   -6.2008 O.3     1  UNL1       -0.3263
     37 H          17.6264   70.1083   -8.6203 H       1  UNL1        0.2105
     38 H          17.3428   73.2134   -9.9456 H       1  UNL1        0.2105
     39 C          17.8913   69.7272   -4.4136 C.2     1  UNL1        0.2231
     40 C          18.6390   68.6982   -3.6046 C.3     1  UNL1        0.0946
     41 N          18.5625   70.7230   -5.0236 N.am    1  UNL1       -0.2994
     42 O          16.6849   69.6592   -4.5148 O.2     1  UNL1       -0.2751
     43 H          19.5279   70.7777   -4.9425 H       1  UNL1        0.1496
     44 C          17.3753   75.0945   -8.3858 C.3     1  UNL1        0.1693
     45 O          16.0719   74.7260   -8.8412 O.3     1  UNL1       -0.3794
     46 H          15.7294   75.4760   -9.3460 H       1  UNL1        0.2105
@<TRIPOS>BOND
     1    29    30    1
     2    29    28    1
     3    29    36    1
     4    30    31    1
     5    30    41    1
     6    31    32    1
     7    31    34    1
     8    32    33    1
     9    32    35    1
    10    33    44    1
    11    33    36    1
    12    44    45    1
    13    39    40    1
    14    39    41   am
    15    39    42    2
    16    41    43    1
    17    28    25    1
    18    34    37    1
    19    35    38    1
    20    45    46    1
    21    15    16   ar
    22    15    20   ar
    23    15     6    1
    24    16    17   ar
    25    16    21    2
    26    17    18   ar
    27    17    23    1
    28    18    19   ar
    29    18    22    2
    30    19    20   ar
    31     6     7    1
    32     6    11    1
    33     7     8    1
    34     7     9    1
    35     8    13    1
    36     9    10    1
    37     9    12    1
    38    10    11    1
    39    10     5    1
    40    12    14    1
    41     5     4    1
    42     4     1    1
    43     1     2    2
    44     1     3    1
    45     1    24    1
    46    24    25    1
    47    25    26    2
    48    25    27    1
@<TRIPOS>MOLECULE
UD1
 46 48 0 0 0
SMALL
GASTEIGER

@<TRIPOS>ATOM
      1 P          21.7102   70.6121   -1.3818 P.3     1  UNL1        0.2189
      2 O          20.7163   69.8411   -0.6030 O.2     1  UNL1       -0.5170
      3 O          23.1617   70.4573   -0.7023 O.3     1  UNL1       -0.4371
      4 O          21.2895   72.1663   -1.3983 O.3     1  UNL1       -0.3112
      5 C          22.3179   72.8808   -0.7110 C.3     1  UNL1        0.1811
      6 C          22.6932   74.2831    2.5784 C.3     1  UNL1        0.2383
      7 C          22.0911   75.4330    1.7326 C.3     1  UNL1        0.1895
      8 O          21.2733   76.2844    2.5360 O.3     1  UNL1       -0.3779
      9 C          21.2347   74.6606    0.6957 C.3     1  UNL1        0.1713
     10 C          21.8366   73.2422    0.6951 C.3     1  UNL1        0.1764
     11 O          22.9488   73.2471    1.6063 O.3     1  UNL1       -0.3308
     12 O          19.8647   74.6296    1.1021 O.3     1  UNL1       -0.3794
     13 H          20.9312   76.9761    1.9528 H       1  UNL1        0.2106
     14 H          19.5641   75.5473    1.1408 H       1  UNL1        0.2105
     15 N          23.9380   74.7071    3.2203 N.ar    1  UNL1       -0.2551
     16 C          24.1862   74.3516    4.4928 C.ar    1  UNL1        0.3323
     17 N          25.3246   74.7242    5.1071 N.ar    1  UNL1       -0.2743
     18 C          26.2358   75.4729    4.4536 C.ar    1  UNL1        0.2626
     19 C          25.9845   75.8593    3.1155 C.ar    1  UNL1        0.0795
     20 C          24.8368   75.4673    2.5217 C.ar    1  UNL1        0.0869
     21 O          23.3742   73.6764    5.0955 O.2     1  UNL1       -0.2464
     22 O          27.2632   75.8144    5.0096 O.2     1  UNL1       -0.2670
     23 H          25.4894   74.4547    6.0239 H       1  UNL1        0.1734
     24 O          21.7603   70.0539   -2.8900 O.3     1  UNL1       -0.2703
     25 P          20.2590   70.1301   -3.4640 P.3     1  UNL1        0.2208
     26 O          19.4778   71.1067   -2.6736 O.2     1  UNL1       -0.5170
     27 O          19.5685   68.6796   -3.3573 O.3     1  UNL1       -0.4371
     28 O          20.2951   70.5935   -5.0050 O.3     1  UNL1       -0.2865
     29 C          19.7187   71.8996   -5.0587 C.3     1  UNL1        0.2611
     30 C          19.3951   72.2494   -6.5123 C.3     1  UNL1        0.1582
     31 C          20.6837   72.1922   -7.3404 C.3     1  UNL1        0.1625
     32 C          21.7351   73.0854   -6.6733 C.3     1  UNL1        0.1686
     33 C          21.8843   72.6703   -5.2081 C.3     1  UNL1        0.1760
     34 O          20.4231   72.6609   -8.6647 O.3     1  UNL1       -0.3801
     35 O          22.9872   72.9329   -7.3446 O.3     1  UNL1       -0.3794
     36 O          20.6424   72.8475   -4.5279 O.3     1  UNL1       -0.3263
     37 H          21.2583   72.6076   -9.1494 H       1  UNL1        0.2105
     38 H          23.6188   73.5105   -6.8931 H       1  UNL1        0.2105
     39 C          17.1153   71.5920   -7.0641 C.2     1  UNL1        0.2231
     40 C          16.1193   70.6014   -7.6110 C.3     1  UNL1        0.0946
     41 N          18.4273   71.2876   -7.0439 N.am    1  UNL1       -0.2994
     42 O          16.7355   72.6631   -6.6416 O.2     1  UNL1       -0.2751
     43 H          18.7314   70.4304   -7.3818 H       1  UNL1        0.1496
     44 C          22.9558   73.5352   -4.5410 C.3     1  UNL1        0.1693
     45 O          23.9601   72.6940   -3.9701 O.3     1  UNL1       -0.3794
     46 H          24.6139   73.2769   -3.5609 H       1  UNL1        0.2105
@<TRIPOS>BOND
     1    29    30    1
     2    29    28    1
     3    29    36    1
     4    30    31    1
     5    30    41    1
     6    31    32    1
     7    31    34    1
     8    32    33    1
     9    32    35    1
    10    33    44    1
    11    33    36    1
    12    44    45    1
    13    39    40    1
    14    39    41   am
    15    39    42    2
    16    41    43    1
    17    28    25    1
    18    34    37    1
    19    35    38    1
    20    45    46    1
    21    15    16   ar
    22    15    20   ar
    23    15     6    1
    24    16    17   ar
    25    16    21    2
    26    17    18   ar
    27    17    23    1
    28    18    19   ar
    29    18    22    2
    30    19    20   ar
    31     6     7    1
    32     6    11    1
    33     7     8    1
    34     7     9    1
    35     8    13    1
    36     9    10    1
    37     9    12    1
    38    10    11    1
    39    10     5    1
    40    12    14    1
    41     5     4    1
    42     4     1    1
    43     1     2    2
    44     1     3    1
    45     1    24    1
    46    24    25    1
    47    25    26    2
    48    25    27    1
@<TRIPOS>MOLECULE
UD1
 46 48 0 0 0
SMALL
GASTEIGER

@<TRIPOS>ATOM
      1 P          21.3822   70.4163   -1.8016 P.3     1  UNL1        0.2189
      2 O          20.9706   69.8302   -0.5070 O.2     1  UNL1       -0.5170
      3 O          22.9726   70.6675   -1.7956 O.3     1  UNL1       -0.4371
      4 O          20.6195   71.8171   -2.0226 O.3     1  UNL1       -0.3112
      5 C          21.5084   72.6611   -2.7559 C.3     1  UNL1        0.1811
      6 C          22.3167   74.4281    0.2693 C.3     1  UNL1        0.2383
      7 C          23.6893   74.1288   -0.3840 C.3     1  UNL1        0.1895
      8 O          24.6397   75.1457   -0.0652 O.3     1  UNL1       -0.3779
      9 C          23.3421   74.1501   -1.8954 C.3     1  UNL1        0.1713
     10 C          21.8201   73.9123   -1.9333 C.3     1  UNL1        0.1764
     11 O          21.3802   73.7277   -0.5769 O.3     1  UNL1       -0.3308
     12 O          23.6712   75.4182   -2.4665 O.3     1  UNL1       -0.3794
     13 H          25.4685   74.9007   -0.4995 H       1  UNL1        0.2106
     14 H          24.6247   75.5340   -2.3587 H       1  UNL1        0.2105
     15 N          22.2673   73.9070    1.6358 N.ar    1  UNL1       -0.2551
     16 C          22.5810   74.7104    2.6670 C.ar    1  UNL1        0.3323
     17 N          22.5404   74.2591    3.9347 N.ar    1  UNL1       -0.2743
     18 C          22.1907   72.9823    4.1904 C.ar    1  UNL1        0.2626
     19 C          21.8637   72.1239    3.1138 C.ar    1  UNL1        0.0795
     20 C          21.9076   72.6041    1.8525 C.ar    1  UNL1        0.0869
     21 O          22.8983   75.8645    2.4525 O.2     1  UNL1       -0.2464
     22 O          22.1582   72.5718    5.3358 O.2     1  UNL1       -0.2670
     23 H          22.7652   74.8538    4.6667 H       1  UNL1        0.1734
     24 O          21.0022   69.4047   -2.9937 O.3     1  UNL1       -0.2703
     25 P          19.3963   69.3875   -3.0947 P.3     1  UNL1        0.2208
     26 O          18.8160   69.4571   -1.7356 O.2     1  UNL1       -0.5170
     27 O          18.9176   68.0285   -3.8130 O.3     1  UNL1       -0.4371
     28 O          18.8980   70.6524   -3.9563 O.3     1  UNL1       -0.2865
     29 C          17.7703   70.2169   -4.7178 C.3     1  UNL1        0.2611
     30 C          17.7087   71.0071   -6.0261 C.3     1  UNL1        0.1582
     31 C          17.5997   72.5018   -5.7042 C.3     1  UNL1        0.1625
     32 C          16.4133   72.7140   -4.7578 C.3     1  UNL1        0.1686
     33 C          16.5743   71.7970   -3.5435 C.3     1  UNL1        0.1760
     34 O          17.3912   73.2376   -6.9111 O.3     1  UNL1       -0.3801
     35 O          16.3820   74.0766   -4.3287 O.3     1  UNL1       -0.3794
     36 O          16.5784   70.4339   -3.9658 O.3     1  UNL1       -0.3263
     37 H          17.3289   74.1701   -6.6625 H       1  UNL1        0.2105
     38 H          15.6225   74.1657   -3.7356 H       1  UNL1        0.2105
     39 C          18.8430   70.5512   -8.1332 C.2     1  UNL1        0.2231
     40 C          20.0941   70.2969   -8.9346 C.3     1  UNL1        0.0946
     41 N          18.9239   70.7605   -6.8051 N.am    1  UNL1       -0.2994
     42 O          17.7629   70.5668   -8.6840 O.2     1  UNL1       -0.2751
     43 H          19.7881   70.7478   -6.3640 H       1  UNL1        0.1496
     44 C          15.4109   72.0249   -2.5761 C.3     1  UNL1        0.1693
     45 O          14.2463   72.4045   -3.3121 O.3     1  UNL1       -0.3794
     46 H          13.5389   72.5383   -2.6669 H       1  UNL1        0.2105
@<TRIPOS>BOND
     1    29    30    1
     2    29    28    1
     3    29    36    1
     4    30    31    1
     5    30    41    1
     6    31    32    1
     7    31    34    1
     8    32    33    1
     9    32    35    1
    10    33    44    1
    11    33    36    1
    12    44    45    1
    13    39    40    1
    14    39    41   am
    15    39    42    2
    16    41    43    1
    17    28    25    1
    18    34    37    1
    19    35    38    1
    20    45    46    1
    21    15    16   ar
    22    15    20   ar
    23    15     6    1
    24    16    17   ar
    25    16    21    2
    26    17    18   ar
    27    17    23    1
    28    18    19   ar
    29    18    22    2
    30    19    20   ar
    31     6     7    1
    32     6    11    1
    33     7     8    1
    34     7     9    1
    35     8    13    1
    36     9    10    1
    37     9    12    1
    38    10    11    1
    39    10     5    1
    40    12    14    1
    41     5     4    1
    42     4     1    1
    43     1     2    2
    44     1     3    1
    45     1    24    1
    46    24    25    1
    47    25    26    2
    48    25    27    1
@<TRIPOS>MOLECULE
UD1
 46 48 0 0 0
SMALL
GASTEIGER

@<TRIPOS>ATOM
      1 P          18.6633   74.8317   -2.3910 P.3     1  UNL1        0.2189
      2 O          17.8696   74.9920   -1.1529 O.2     1  UNL1       -0.5170
      3 O          17.9423   75.6188   -3.5965 O.3     1  UNL1       -0.4371
      4 O          18.7703   73.2681   -2.7606 O.3     1  UNL1       -0.3112
      5 C          17.5443   72.6609   -2.3500 C.3     1  UNL1        0.1811
      6 C          17.9014   70.3567   -5.0868 C.3     1  UNL1        0.2383
      7 C          19.1720   70.1388   -4.2276 C.3     1  UNL1        0.1895
      8 O          19.6268   68.7884   -4.3210 O.3     1  UNL1       -0.3779
      9 C          18.6565   70.4515   -2.7988 C.3     1  UNL1        0.1713
     10 C          17.3930   71.3015   -3.0343 C.3     1  UNL1        0.1764
     11 O          17.2548   71.4815   -4.4541 O.3     1  UNL1       -0.3308
     12 O          18.3326   69.2429   -2.1081 O.3     1  UNL1       -0.3794
     13 H          20.4165   68.7197   -3.7667 H       1  UNL1        0.2106
     14 H          19.1493   68.7298   -2.0451 H       1  UNL1        0.2105
     15 N          18.2580   70.6770   -6.4695 N.ar    1  UNL1       -0.2551
     16 C          17.3399   70.5432   -7.4424 C.ar    1  UNL1        0.3323
     17 N          17.6389   70.8344   -8.7223 N.ar    1  UNL1       -0.2743
     18 C          18.8755   71.2590   -9.0515 C.ar    1  UNL1        0.2626
     19 C          19.8534   71.3986   -8.0381 C.ar    1  UNL1        0.0795
     20 C          19.5251   71.1047   -6.7617 C.ar    1  UNL1        0.0869
     21 O          16.2202   70.1614   -7.1612 O.2     1  UNL1       -0.2464
     22 O          19.1483   71.5179  -10.2091 O.2     1  UNL1       -0.2670
     23 H          16.9629   70.7367   -9.4106 H       1  UNL1        0.1734
     24 O          20.1390   75.4314   -2.1639 O.3     1  UNL1       -0.2703
     25 P          20.5818   75.0240   -0.6715 P.3     1  UNL1        0.2208
     26 O          19.5042   75.3810    0.2773 O.2     1  UNL1       -0.5170
     27 O          21.9277   75.8139   -0.2758 O.3     1  UNL1       -0.4371
     28 O          20.8523   73.4388   -0.6045 O.3     1  UNL1       -0.2865
     29 C          22.2507   73.2472   -0.8259 C.3     1  UNL1        0.2611
     30 C          22.4491   72.2417   -1.9615 C.3     1  UNL1        0.1582
     31 C          21.7749   70.9182   -1.5826 C.3     1  UNL1        0.1625
     32 C          22.3053   70.4716   -0.2162 C.3     1  UNL1        0.1686
     33 C          22.1149   71.6098    0.7886 C.3     1  UNL1        0.1760
     34 O          22.0796   69.9270   -2.5656 O.3     1  UNL1       -0.3801
     35 O          21.5842   69.3189    0.2229 O.3     1  UNL1       -0.3794
     36 O          22.8562   72.7540    0.3671 O.3     1  UNL1       -0.3263
     37 H          21.6365   69.1133   -2.2885 H       1  UNL1        0.2105
     38 H          21.9487   69.0724    1.0849 H       1  UNL1        0.2105
     39 C          22.6071   72.9538   -4.2858 C.2     1  UNL1        0.2231
     40 C          21.9872   73.4927   -5.5498 C.3     1  UNL1        0.0946
     41 N          21.8473   72.7648   -3.1898 N.am    1  UNL1       -0.2994
     42 O          23.7903   72.6907   -4.2552 O.2     1  UNL1       -0.2751
     43 H          20.9004   72.9754   -3.2140 H       1  UNL1        0.1496
     44 C          22.6119   71.1620    2.1647 C.3     1  UNL1        0.1693
     45 O          23.4838   70.0398    2.0148 O.3     1  UNL1       -0.3794
     46 H          23.7734   69.7898    2.9027 H       1  UNL1        0.2105
@<TRIPOS>BOND
     1    29    30    1
     2    29    28    1
     3    29    36    1
     4    30    31    1
     5    30    41    1
     6    31    32    1
     7    31    34    1
     8    32    33    1
     9    32    35    1
    10    33    44    1
    11    33    36    1
    12    44    45    1
    13    39    40    1
    14    39    41   am
    15    39    42    2
    16    41    43    1
    17    28    25    1
    18    34    37    1
    19    35    38    1
    20    45    46    1
    21    15    16   ar
    22    15    20   ar
    23    15     6    1
    24    16    17   ar
    25    16    21    2
    26    17    18   ar
    27    17    23    1
    28    18    19   ar
    29    18    22    2
    30    19    20   ar
    31     6     7    1
    32     6    11    1
    33     7     8    1
    34     7     9    1
    35     8    13    1
    36     9    10    1
    37     9    12    1
    38    10    11    1
    39    10     5    1
    40    12    14    1
    41     5     4    1
    42     4     1    1
    43     1     2    2
    44     1     3    1
    45     1    24    1
    46    24    25    1
    47    25    26    2
    48    25    27    1
@<TRIPOS>MOLECULE
UD1
 46 48 0 0 0
SMALL
GASTEIGER

@<TRIPOS>ATOM
      1 P          17.9123   72.1156   -2.6169 P.3     1  UNL1        0.2189
      2 O          17.0741   73.0163   -1.7953 O.2     1  UNL1       -0.5170
      3 O          17.2596   70.6439   -2.6358 O.3     1  UNL1       -0.4371
      4 O          19.3920   72.0373   -1.9867 O.3     1  UNL1       -0.3112
      5 C          20.2994   72.4550   -3.0078 C.3     1  UNL1        0.1811
      6 C          22.7582   72.4101   -0.3849 C.3     1  UNL1        0.2383
      7 C          22.5476   70.9181   -0.7451 C.3     1  UNL1        0.1895
      8 O          23.7438   70.1674   -0.5336 O.3     1  UNL1       -0.3779
      9 C          22.2012   70.9934   -2.2549 C.3     1  UNL1        0.1713
     10 C          21.7266   72.4452   -2.4582 C.3     1  UNL1        0.1764
     11 O          21.7607   73.0921   -1.1746 O.3     1  UNL1       -0.3308
     12 O          23.3590   70.7229   -3.0480 O.3     1  UNL1       -0.3794
     13 H          23.5463   69.2518   -0.7747 H       1  UNL1        0.2106
     14 H          23.6417   69.8242   -2.8321 H       1  UNL1        0.2105
     15 N          22.5301   72.6370    1.0427 N.ar    1  UNL1       -0.2551
     16 C          21.8390   71.7333    1.7589 C.ar    1  UNL1        0.3323
     17 N          21.6175   71.9141    3.0744 N.ar    1  UNL1       -0.2743
     18 C          22.0809   73.0171    3.6961 C.ar    1  UNL1        0.2626
     19 C          22.8048   73.9795    2.9528 C.ar    1  UNL1        0.0795
     20 C          23.0172   73.7705    1.6358 C.ar    1  UNL1        0.0869
     21 O          21.4147   70.7333    1.2123 O.2     1  UNL1       -0.2464
     22 O          21.8771   73.1839    4.8844 O.2     1  UNL1       -0.2670
     23 H          21.1211   71.2496    3.5765 H       1  UNL1        0.1734
     24 O          17.9986   72.6849   -4.1194 O.3     1  UNL1       -0.2703
     25 P          16.8676   71.9208   -4.9716 P.3     1  UNL1        0.2208
     26 O          15.5308   72.4066   -4.5643 O.2     1  UNL1       -0.5170
     27 O          16.9680   70.3371   -4.6997 O.3     1  UNL1       -0.4371
     28 O          17.0886   72.2096   -6.5395 O.3     1  UNL1       -0.2865
     29 C          18.0325   73.2778   -6.6351 C.3     1  UNL1        0.2611
     30 C          17.5836   74.2523   -7.7255 C.3     1  UNL1        0.1582
     31 C          17.4799   73.5010   -9.0575 C.3     1  UNL1        0.1625
     32 C          18.8115   72.7916   -9.3251 C.3     1  UNL1        0.1686
     33 C          19.1663   71.9247   -8.1151 C.3     1  UNL1        0.1760
     34 O          17.2074   74.4279  -10.1101 O.3     1  UNL1       -0.3801
     35 O          18.6892   71.9674  -10.4858 O.3     1  UNL1       -0.3794
     36 O          19.3162   72.7483   -6.9593 O.3     1  UNL1       -0.3263
     37 H          17.1501   73.9138  -10.9273 H       1  UNL1        0.2105
     38 H          19.5474   71.5399  -10.6171 H       1  UNL1        0.2105
     39 C          15.1500   74.2317   -7.8314 C.2     1  UNL1        0.2231
     40 C          13.8048   74.8082   -7.4704 C.3     1  UNL1        0.0946
     41 N          16.2766   74.8117   -7.3747 N.am    1  UNL1       -0.2994
     42 O          15.2183   73.2457   -8.5337 O.2     1  UNL1       -0.2751
     43 H          16.2222   75.6010   -6.8128 H       1  UNL1        0.1496
     44 C          20.4789   71.1864   -8.3855 C.3     1  UNL1        0.1693
     45 O          20.1956   69.8636   -8.8461 O.3     1  UNL1       -0.3794
     46 H          21.0471   69.4339   -9.0039 H       1  UNL1        0.2105
@<TRIPOS>BOND
     1    29    30    1
     2    29    28    1
     3    29    36    1
     4    30    31    1
     5    30    41    1
     6    31    32    1
     7    31    34    1
     8    32    33    1
     9    32    35    1
    10    33    44    1
    11    33    36    1
    12    44    45    1
    13    39    40    1
    14    39    41   am
    15    39    42    2
    16    41    43    1
    17    28    25    1
    18    34    37    1
    19    35    38    1
    20    45    46    1
    21    15    16   ar
    22    15    20   ar
    23    15     6    1
    24    16    17   ar
    25    16    21    2
    26    17    18   ar
    27    17    23    1
    28    18    19   ar
    29    18    22    2
    30    19    20   ar
    31     6     7    1
    32     6    11    1
    33     7     8    1
    34     7     9    1
    35     8    13    1
    36     9    10    1
    37     9    12    1
    38    10    11    1
    39    10     5    1
    40    12    14    1
    41     5     4    1
    42     4     1    1
    43     1     2    2
    44     1     3    1
    45     1    24    1
    46    24    25    1
    47    25    26    2
    48    25    27    1
@<TRIPOS>MOLECULE
UD1
 46 48 0 0 0
SMALL
GASTEIGER

@<TRIPOS>ATOM
      1 P          22.7108   73.5516   -4.4765 P.3     1  UNL1        0.2189
      2 O          23.8739   72.7140   -4.1102 O.2     1  UNL1       -0.5170
      3 O          23.0983   74.4919   -5.7248 O.3     1  UNL1       -0.4371
      4 O          22.2961   74.4714   -3.2216 O.3     1  UNL1       -0.3112
      5 C          21.4120   73.6938   -2.4127 C.3     1  UNL1        0.1811
      6 C          22.1349   72.4004    0.8632 C.3     1  UNL1        0.2383
      7 C          21.2808   71.2970    0.1900 C.3     1  UNL1        0.1895
      8 O          21.6399   70.0038    0.6777 O.3     1  UNL1       -0.3779
      9 C          21.6672   71.4521   -1.3039 C.3     1  UNL1        0.1713
     10 C          22.2243   72.8856   -1.3996 C.3     1  UNL1        0.1764
     11 O          22.1088   73.4794   -0.0953 O.3     1  UNL1       -0.3308
     12 O          22.6659   70.4953   -1.6643 O.3     1  UNL1       -0.3794
     13 H          21.0741   69.3654    0.2217 H       1  UNL1        0.2106
     14 H          22.2776   69.6210   -1.5265 H       1  UNL1        0.2105
     15 N          21.5354   72.8209    2.1302 N.ar    1  UNL1       -0.2551
     16 C          21.9224   72.2359    3.2770 C.ar    1  UNL1        0.3323
     17 N          21.3909   72.6053    4.4574 N.ar    1  UNL1       -0.2743
     18 C          20.4486   73.5684    4.5065 C.ar    1  UNL1        0.2626
     19 C          20.0276   74.1884    3.3060 C.ar    1  UNL1        0.0795
     20 C          20.5812   73.8023    2.1365 C.ar    1  UNL1        0.0869
     21 O          22.7714   71.3657    3.2490 O.2     1  UNL1       -0.2464
     22 O          19.9639   73.8998    5.5726 O.2     1  UNL1       -0.2670
     23 H          21.6853   72.1759    5.2754 H       1  UNL1        0.1734
     24 O          21.4737   72.6052   -4.8800 O.3     1  UNL1       -0.2703
     25 P          21.1062   72.9470   -6.4088 P.3     1  UNL1        0.2208
     26 O          22.2104   72.5096   -7.2911 O.2     1  UNL1       -0.5170
     27 O          20.8901   74.5345   -6.5676 O.3     1  UNL1       -0.4371
     28 O          19.7533   72.1789   -6.8215 O.3     1  UNL1       -0.2865
     29 C          18.7643   72.5317   -5.8527 C.3     1  UNL1        0.2611
     30 C          18.0344   71.2684   -5.3929 C.3     1  UNL1        0.1582
     31 C          17.3860   70.5942   -6.6073 C.3     1  UNL1        0.1625
     32 C          16.5132   71.6244   -7.3319 C.3     1  UNL1        0.1686
     33 C          17.3589   72.8597   -7.6481 C.3     1  UNL1        0.1760
     34 O          16.5784   69.4988   -6.1722 O.3     1  UNL1       -0.3801
     35 O          16.0164   71.0598   -8.5468 O.3     1  UNL1       -0.3794
     36 O          17.8341   73.4421   -6.4351 O.3     1  UNL1       -0.3263
     37 H          16.1912   69.1046   -6.9660 H       1  UNL1        0.2105
     38 H          15.4742   71.7403   -8.9703 H       1  UNL1        0.2105
     39 C          18.7317   69.8228   -3.5604 C.2     1  UNL1        0.2231
     40 C          19.7163   68.8762   -2.9227 C.3     1  UNL1        0.0946
     41 N          18.9904   70.3484   -4.7733 N.am    1  UNL1       -0.2994
     42 O          17.7065   70.1121   -2.9812 O.2     1  UNL1       -0.2751
     43 H          19.8108   70.1172   -5.2369 H       1  UNL1        0.1496
     44 C          16.5047   73.8819   -8.4009 C.3     1  UNL1        0.1693
     45 O          15.2832   73.2681   -8.8173 O.3     1  UNL1       -0.3794
     46 H          14.7761   73.9443   -9.2867 H       1  UNL1        0.2105
@<TRIPOS>BOND
     1    29    30    1
     2    29    28    1
     3    29    36    1
     4    30    31    1
     5    30    41    1
     6    31    32    1
     7    31    34    1
     8    32    33    1
     9    32    35    1
    10    33    44    1
    11    33    36    1
    12    44    45    1
    13    39    40    1
    14    39    41   am
    15    39    42    2
    16    41    43    1
    17    28    25    1
    18    34    37    1
    19    35    38    1
    20    45    46    1
    21    15    16   ar
    22    15    20   ar
    23    15     6    1
    24    16    17   ar
    25    16    21    2
    26    17    18   ar
    27    17    23    1
    28    18    19   ar
    29    18    22    2
    30    19    20   ar
    31     6     7    1
    32     6    11    1
    33     7     8    1
    34     7     9    1
    35     8    13    1
    36     9    10    1
    37     9    12    1
    38    10    11    1
    39    10     5    1
    40    12    14    1
    41     5     4    1
    42     4     1    1
    43     1     2    2
    44     1     3    1
    45     1    24    1
    46    24    25    1
    47    25    26    2
    48    25    27    1
@<TRIPOS>MOLECULE
UD1
 46 48 0 0 0
SMALL
GASTEIGER

@<TRIPOS>ATOM
      1 P          22.4444   70.7124    0.2768 P.3     1  UNL1        0.2189
      2 O          22.7706   72.0927   -0.1443 O.2     1  UNL1       -0.5170
      3 O          23.7016   69.7503   -0.0172 O.3     1  UNL1       -0.4371
      4 O          21.1646   70.1886   -0.5481 O.3     1  UNL1       -0.3112
      5 C          20.8063   71.2280   -1.4601 C.3     1  UNL1        0.1811
      6 C          20.4445   71.0533   -5.0331 C.3     1  UNL1        0.2383
      7 C          21.2534   72.3517   -4.7878 C.3     1  UNL1        0.1895
      8 O          22.1364   72.6174   -5.8781 O.3     1  UNL1       -0.3779
      9 C          22.0494   72.0018   -3.5036 C.3     1  UNL1        0.1713
     10 C          21.2514   70.8446   -2.8723 C.3     1  UNL1        0.1764
     11 O          20.1002   70.6136   -3.7020 O.3     1  UNL1       -0.3308
     12 O          23.3746   71.5818   -3.8353 O.3     1  UNL1       -0.3794
     13 H          22.6075   73.4347   -5.6644 H       1  UNL1        0.2106
     14 H          23.8009   72.3270   -4.2791 H       1  UNL1        0.2105
     15 N          19.2380   71.3325   -5.8127 N.ar    1  UNL1       -0.2551
     16 C          18.2582   72.0823   -5.2786 C.ar    1  UNL1        0.3323
     17 N          17.1392   72.3584   -5.9742 N.ar    1  UNL1       -0.2743
     18 C          16.9789   71.8757   -7.2229 C.ar    1  UNL1        0.2626
     19 C          17.9999   71.0800   -7.7951 C.ar    1  UNL1        0.0795
     20 C          19.1143   70.8230   -7.0772 C.ar    1  UNL1        0.0869
     21 O          18.3881   72.5249   -4.1535 O.2     1  UNL1       -0.2464
     22 O          15.9655   72.1207   -7.8509 O.2     1  UNL1       -0.2670
     23 H          16.4447   72.9049   -5.5751 H       1  UNL1        0.1734
     24 O          22.1114   70.6961    1.8509 O.3     1  UNL1       -0.2703
     25 P          21.6516   72.1871    2.2443 P.3     1  UNL1        0.2208
     26 O          20.7265   72.1298    3.3974 O.2     1  UNL1       -0.5170
     27 O          20.9042   72.8673    0.9909 O.3     1  UNL1       -0.4371
     28 O          22.9440   73.0627    2.6363 O.3     1  UNL1       -0.2865
     29 C          22.5567   74.4351    2.5491 C.3     1  UNL1        0.2611
     30 C          23.7063   75.2471    1.9497 C.3     1  UNL1        0.1582
     31 C          24.9466   75.0901    2.8365 C.3     1  UNL1        0.1625
     32 C          24.5698   75.4576    4.2757 C.3     1  UNL1        0.1686
     33 C          23.3568   74.6273    4.7007 C.3     1  UNL1        0.1760
     34 O          25.9807   75.9597    2.3718 O.3     1  UNL1       -0.3801
     35 O          25.6698   75.1783    5.1438 O.3     1  UNL1       -0.3794
     36 O          22.2483   74.9242    3.8526 O.3     1  UNL1       -0.3263
     37 H          26.7398   75.8284    2.9564 H       1  UNL1        0.2105
     38 H          25.3901   75.4229    6.0374 H       1  UNL1        0.2105
     39 C          24.2674   75.6286   -0.3899 C.2     1  UNL1        0.2231
     40 C          24.5709   75.1235   -1.7774 C.3     1  UNL1        0.0946
     41 N          24.0016   74.7568    0.6018 N.am    1  UNL1       -0.2994
     42 O          24.2617   76.8204   -0.1664 O.2     1  UNL1       -0.2751
     43 H          24.0059   73.8031    0.4231 H       1  UNL1        0.1496
     44 C          22.9923   74.9633    6.1483 C.3     1  UNL1        0.1693
     45 O          22.2348   73.8900    6.7106 O.3     1  UNL1       -0.3794
     46 H          22.0260   74.1415    7.6204 H       1  UNL1        0.2105
@<TRIPOS>BOND
     1    29    30    1
     2    29    28    1
     3    29    36    1
     4    30    31    1
     5    30    41    1
     6    31    32    1
     7    31    34    1
     8    32    33    1
     9    32    35    1
    10    33    44    1
    11    33    36    1
    12    44    45    1
    13    39    40    1
    14    39    41   am
    15    39    42    2
    16    41    43    1
    17    28    25    1
    18    34    37    1
    19    35    38    1
    20    45    46    1
    21    15    16   ar
    22    15    20   ar
    23    15     6    1
    24    16    17   ar
    25    16    21    2
    26    17    18   ar
    27    17    23    1
    28    18    19   ar
    29    18    22    2
    30    19    20   ar
    31     6     7    1
    32     6    11    1
    33     7     8    1
    34     7     9    1
    35     8    13    1
    36     9    10    1
    37     9    12    1
    38    10    11    1
    39    10     5    1
    40    12    14    1
    41     5     4    1
    42     4     1    1
    43     1     2    2
    44     1     3    1
    45     1    24    1
    46    24    25    1
    47    25    26    2
    48    25    27    1
@<TRIPOS>MOLECULE
UD1
 46 48 0 0 0
SMALL
GASTEIGER

@<TRIPOS>ATOM
      1 P          22.7592   73.3264   -4.8046 P.3     1  UNL1        0.2189
      2 O          23.8707   72.6305   -4.1198 O.2     1  UNL1       -0.5170
      3 O          23.1157   74.8895   -4.9540 O.3     1  UNL1       -0.4371
      4 O          21.4111   73.1648   -3.9390 O.3     1  UNL1       -0.3112
      5 C          21.6518   73.7902   -2.6775 C.3     1  UNL1        0.1811
      6 C          22.2878   72.2078    0.4878 C.3     1  UNL1        0.2383
      7 C          21.2463   71.2915   -0.2020 C.3     1  UNL1        0.1895
      8 O          21.4167   69.9316    0.1991 O.3     1  UNL1       -0.3779
      9 C          21.5948   71.4739   -1.7021 C.3     1  UNL1        0.1713
     10 C          22.3655   72.8074   -1.7479 C.3     1  UNL1        0.1764
     11 O          22.3945   73.3331   -0.4100 O.3     1  UNL1       -0.3308
     12 O          22.4168   70.3976   -2.1592 O.3     1  UNL1       -0.3794
     13 H          20.7409   69.4164   -0.2629 H       1  UNL1        0.2106
     14 H          21.9019   69.5871   -2.0498 H       1  UNL1        0.2105
     15 N          21.8104   72.6394    1.8020 N.ar    1  UNL1       -0.2551
     16 C          22.1707   71.9528    2.9003 C.ar    1  UNL1        0.3323
     17 N          21.7497   72.3293    4.1222 N.ar    1  UNL1       -0.2743
     18 C          20.9469   73.4033    4.2633 C.ar    1  UNL1        0.2626
     19 C          20.5551   74.1317    3.1149 C.ar    1  UNL1        0.0795
     20 C          20.9962   73.7353    1.9018 C.ar    1  UNL1        0.0869
     21 O          22.8944   70.9819    2.7893 O.2     1  UNL1       -0.2464
     22 O          20.5617   73.7418    5.3671 O.2     1  UNL1       -0.2670
     23 H          22.0232   71.8251    4.9040 H       1  UNL1        0.1734
     24 O          22.5406   72.6831   -6.2631 O.3     1  UNL1       -0.2703
     25 P          20.9766   72.8364   -6.6091 P.3     1  UNL1        0.2208
     26 O          20.7001   72.2206   -7.9256 O.2     1  UNL1       -0.5170
     27 O          20.5870   74.3979   -6.6554 O.3     1  UNL1       -0.4371
     28 O          20.1006   72.0996   -5.4776 O.3     1  UNL1       -0.2865
     29 C          19.3214   71.1024   -6.1406 C.3     1  UNL1        0.2611
     30 C          17.8599   71.5518   -6.1869 C.3     1  UNL1        0.1582
     31 C          17.3565   71.7686   -4.7554 C.3     1  UNL1        0.1625
     32 C          17.6219   70.4958   -3.9445 C.3     1  UNL1        0.1686
     33 C          19.1023   70.1278   -4.0648 C.3     1  UNL1        0.1760
     34 O          15.9545   72.0428   -4.7772 O.3     1  UNL1       -0.3801
     35 O          17.2953   70.7264   -2.5727 O.3     1  UNL1       -0.3794
     36 O          19.4255   69.8701   -5.4307 O.3     1  UNL1       -0.3263
     37 H          15.6808   72.1726   -3.8587 H       1  UNL1        0.2105
     38 H          17.4776   69.9022   -2.0994 H       1  UNL1        0.2105
     39 C          16.7416   72.9888   -7.8052 C.2     1  UNL1        0.2231
     40 C          16.6354   74.2781   -8.5789 C.3     1  UNL1        0.0946
     41 N          17.7560   72.8043   -6.9385 N.am    1  UNL1       -0.2994
     42 O          15.9140   72.1169   -7.9633 O.2     1  UNL1       -0.2751
     43 H          18.4186   73.5018   -6.8119 H       1  UNL1        0.1496
     44 C          19.3847   68.8759   -3.2318 C.3     1  UNL1        0.1693
     45 O          18.2741   67.9813   -3.3241 O.3     1  UNL1       -0.3794
     46 H          18.4922   67.2081   -2.7864 H       1  UNL1        0.2105
@<TRIPOS>BOND
     1    29    30    1
     2    29    28    1
     3    29    36    1
     4    30    31    1
     5    30    41    1
     6    31    32    1
     7    31    34    1
     8    32    33    1
     9    32    35    1
    10    33    44    1
    11    33    36    1
    12    44    45    1
    13    39    40    1
    14    39    41   am
    15    39    42    2
    16    41    43    1
    17    28    25    1
    18    34    37    1
    19    35    38    1
    20    45    46    1
    21    15    16   ar
    22    15    20   ar
    23    15     6    1
    24    16    17   ar
    25    16    21    2
    26    17    18   ar
    27    17    23    1
    28    18    19   ar
    29    18    22    2
    30    19    20   ar
    31     6     7    1
    32     6    11    1
    33     7     8    1
    34     7     9    1
    35     8    13    1
    36     9    10    1
    37     9    12    1
    38    10    11    1
    39    10     5    1
    40    12    14    1
    41     5     4    1
    42     4     1    1
    43     1     2    2
    44     1     3    1
    45     1    24    1
    46    24    25    1
    47    25    26    2
    48    25    27    1
