@<TRIPOS>MOLECULE
UD2
 46 48 0 0 0
SMALL
GASTEIGER

@<TRIPOS>ATOM
      1 P          20.4274   71.8620   -2.8931 P.3     1  UNL1        0.2189
      2 O          20.8803   70.5742   -3.7463 O.3     1  UNL1       -0.4371
      3 O          21.3297   72.9954   -3.1930 O.2     1  UNL1       -0.5170
      4 O          18.9168   72.2605   -3.2841 O.3     1  UNL1       -0.3112
      5 C          17.7775   71.7938   -2.5591 C.3     1  UNL1        0.1811
      6 C          16.7262   70.4783   -5.7373 C.3     1  UNL1        0.2383
      7 C          17.1590   69.2322   -4.9237 C.3     1  UNL1        0.1895
      8 O          16.4014   68.0834   -5.3085 O.3     1  UNL1       -0.3779
      9 C          16.8203   69.6568   -3.4737 C.3     1  UNL1        0.1713
     10 C          16.7621   71.1950   -3.5356 C.3     1  UNL1        0.1764
     11 O          17.0899   71.5818   -4.8797 O.3     1  UNL1       -0.3308
     12 O          15.5548   69.1233   -3.0803 O.3     1  UNL1       -0.3794
     13 H          16.6361   67.2781   -4.8278 H       1  UNL1        0.2106
     14 H          15.5169   68.1574   -3.0810 H       1  UNL1        0.2105
     15 N          17.4574   70.5464   -7.0045 N.ar    1  UNL1       -0.2551
     16 C          16.7790   70.5543   -8.1657 C.ar    1  UNL1        0.3323
     17 N          17.4251   70.6161   -9.3451 N.ar    1  UNL1       -0.2743
     18 C          18.7720   70.6733   -9.3790 C.ar    1  UNL1        0.2626
     19 C          19.4987   70.6668   -8.1641 C.ar    1  UNL1        0.0795
     20 C          18.8249   70.6085   -6.9962 C.ar    1  UNL1        0.0869
     21 O          15.5643   70.5034   -8.1503 O.2     1  UNL1       -0.2464
     22 O          19.3579   70.7297  -10.4457 O.2     1  UNL1       -0.2670
     23 H          16.9206   70.6196  -10.1732 H       1  UNL1        0.1734
     24 O          20.5012   71.5179   -1.3216 O.3     1  UNL1       -0.2703
     25 P          21.7102   71.3017   -0.2802 P.3     1  UNL1        0.2208
     26 O          21.2961   70.1775    0.7961 O.3     1  UNL1       -0.4371
     27 O          22.9188   70.8623   -1.0114 O.2     1  UNL1       -0.5170
     28 O          22.0169   72.6870    0.4810 O.3     1  UNL1       -0.2865
     29 C          22.1121   72.7894    1.9029 C.3     1  UNL1        0.2611
     30 C          22.3641   74.2474    2.2948 C.3     1  UNL1        0.1582
     31 C          23.7029   74.7014    1.7051 C.3     1  UNL1        0.1625
     32 C          24.8100   73.7673    2.2013 C.3     1  UNL1        0.1686
     33 C          24.4637   72.3275    1.8129 C.3     1  UNL1        0.1760
     34 O          23.9813   76.0384    2.1271 O.3     1  UNL1       -0.3801
     35 O          24.9173   73.8665    3.6226 O.3     1  UNL1       -0.3794
     36 O          23.1936   71.9787    2.3671 O.3     1  UNL1       -0.3263
     37 H          24.8159   76.3914    1.7892 H       1  UNL1        0.2105
     38 H          25.6008   73.2996    4.0066 H       1  UNL1        0.2105
     39 C          20.4587   75.7323    2.6147 C.2     1  UNL1        0.2231
     40 C          19.3509   76.5978    2.0740 C.3     1  UNL1        0.0946
     41 N          21.2865   75.0888    1.7681 N.am    1  UNL1       -0.2994
     42 O          20.6064   75.6140    3.8132 O.2     1  UNL1       -0.2751
     43 H          21.1683   75.1824    0.8098 H       1  UNL1        0.1496
     44 C          25.5352   71.3809    2.3571 C.3     1  UNL1        0.1693
     45 O          25.0313   70.0436    2.3645 O.3     1  UNL1       -0.3794
     46 H          25.6588   69.3880    2.6982 H       1  UNL1        0.2105
@<TRIPOS>BOND
     1    29    30    1
     2    30    41    1
     3    30    31    1
     4    31    34    1
     5    31    32    1
     6    32    35    1
     7    32    33    1
     8    33    36    1
     9    33    44    1
    10    39    40    1
    11    39    42    2
    12    39    41   am
    13    41    43    1
    14    29    28    1
    15    34    37    1
    16    35    38    1
    17    29    36    1
    18    44    45    1
    19    45    46    1
    20    15     6    1
    21    15    16   ar
    22    16    21    2
    23    16    17   ar
    24    17    23    1
    25    17    18   ar
    26    18    19   ar
    27    19    20   ar
    28    15    20   ar
    29    18    22    2
    30     6     7    1
    31     6    11    1
    32     7     9    1
    33     7     8    1
    34     8    13    1
    35     9    10    1
    36     9    12    1
    37    10     5    1
    38    10    11    1
    39    12    14    1
    40     5     4    1
    41     4     1    1
    42     1     2    1
    43     1    24    1
    44     1     3    2
    45    24    25    1
    46    28    25    1
    47    25    26    1
    48    25    27    2
@<TRIPOS>MOLECULE
UD2
 46 48 0 0 0
SMALL
GASTEIGER

@<TRIPOS>ATOM
      1 P          21.0411   71.7021   -3.0523 P.3     1  UNL1        0.2189
      2 O          22.4675   70.9782   -3.2335 O.3     1  UNL1       -0.4371
      3 O          20.8842   72.7498   -4.0850 O.2     1  UNL1       -0.5170
      4 O          19.8638   70.6143   -3.2081 O.3     1  UNL1       -0.3112
      5 C          18.6703   70.6430   -2.4231 C.3     1  UNL1        0.1811
      6 C          17.0202   70.4936   -5.6155 C.3     1  UNL1        0.2383
      7 C          16.9536   69.0429   -5.0741 C.3     1  UNL1        0.1895
      8 O          15.7787   68.3775   -5.5418 O.3     1  UNL1       -0.3779
      9 C          16.8879   69.2695   -3.5438 C.3     1  UNL1        0.1713
     10 C          17.4523   70.6897   -3.3490 C.3     1  UNL1        0.1764
     11 O          17.8406   71.1771   -4.6432 O.3     1  UNL1       -0.3308
     12 O          15.5362   69.2009   -3.0869 O.3     1  UNL1       -0.3794
     13 H          15.6922   67.4663   -5.2304 H       1  UNL1        0.2106
     14 H          15.1118   68.3458   -3.2387 H       1  UNL1        0.2105
     15 N          17.6525   70.5227   -6.9363 N.ar    1  UNL1       -0.2551
     16 C          16.8902   70.4478   -8.0418 C.ar    1  UNL1        0.3323
     17 N          17.4444   70.4721   -9.2684 N.ar    1  UNL1       -0.2743
     18 C          18.7818   70.5745   -9.4070 C.ar    1  UNL1        0.2626
     19 C          19.5962   70.6552   -8.2519 C.ar    1  UNL1        0.0795
     20 C          19.0135   70.6329   -7.0347 C.ar    1  UNL1        0.0869
     21 O          15.6828   70.3553   -7.9319 O.2     1  UNL1       -0.2464
     22 O          19.2846   70.5970  -10.5166 O.2     1  UNL1       -0.2670
     23 H          16.8802   70.4159  -10.0550 H       1  UNL1        0.1734
     24 O          20.9611   72.3727   -1.5904 O.3     1  UNL1       -0.2703
     25 P          20.4256   73.7869   -1.0370 P.3     1  UNL1        0.2208
     26 O          21.4091   74.9629   -1.5303 O.3     1  UNL1       -0.4371
     27 O          19.0622   74.0352   -1.5548 O.2     1  UNL1       -0.5170
     28 O          20.3914   73.7551    0.5725 O.3     1  UNL1       -0.2865
     29 C          21.1049   74.6890    1.3849 C.3     1  UNL1        0.2611
     30 C          21.9624   73.9316    2.4015 C.3     1  UNL1        0.1582
     31 C          21.0478   73.1178    3.3223 C.3     1  UNL1        0.1625
     32 C          20.0480   74.0622    3.9953 C.3     1  UNL1        0.1686
     33 C          19.2641   74.8148    2.9169 C.3     1  UNL1        0.1760
     34 O          21.8350   72.4651    4.3211 O.3     1  UNL1       -0.3801
     35 O          20.7516   74.9972    4.8152 O.3     1  UNL1       -0.3794
     36 O          20.1754   75.5256    2.0765 O.3     1  UNL1       -0.3263
     37 H          21.3194   71.9299    4.9400 H       1  UNL1        0.2105
     38 H          20.1791   75.6286    5.2729 H       1  UNL1        0.2105
     39 C          22.5185   71.7484    1.4730 C.2     1  UNL1        0.2231
     40 C          23.4562   70.8196    0.7472 C.3     1  UNL1        0.0946
     41 N          22.8752   73.0287    1.6957 N.am    1  UNL1       -0.2994
     42 O          21.4411   71.3440    1.8577 O.2     1  UNL1       -0.2751
     43 H          23.7368   73.3521    1.3892 H       1  UNL1        0.1496
     44 C          18.3046   75.8041    3.5810 C.3     1  UNL1        0.1693
     45 O          16.9635   75.3274    3.4524 O.3     1  UNL1       -0.3794
     46 H          16.2998   75.9062    3.8517 H       1  UNL1        0.2105
@<TRIPOS>BOND
     1    29    30    1
     2    30    41    1
     3    30    31    1
     4    31    34    1
     5    31    32    1
     6    32    35    1
     7    32    33    1
     8    33    36    1
     9    33    44    1
    10    39    40    1
    11    39    42    2
    12    39    41   am
    13    41    43    1
    14    29    28    1
    15    34    37    1
    16    35    38    1
    17    29    36    1
    18    44    45    1
    19    45    46    1
    20    15     6    1
    21    15    16   ar
    22    16    21    2
    23    16    17   ar
    24    17    23    1
    25    17    18   ar
    26    18    19   ar
    27    19    20   ar
    28    15    20   ar
    29    18    22    2
    30     6     7    1
    31     6    11    1
    32     7     9    1
    33     7     8    1
    34     8    13    1
    35     9    10    1
    36     9    12    1
    37    10     5    1
    38    10    11    1
    39    12    14    1
    40     5     4    1
    41     4     1    1
    42     1     2    1
    43     1    24    1
    44     1     3    2
    45    24    25    1
    46    28    25    1
    47    25    26    1
    48    25    27    2
@<TRIPOS>MOLECULE
UD2
 46 48 0 0 0
SMALL
GASTEIGER

@<TRIPOS>ATOM
      1 P          23.0862   72.0669   -2.5045 P.3     1  UNL1        0.2189
      2 O          24.1397   70.9148   -2.8970 O.3     1  UNL1       -0.4371
      3 O          23.8114   73.3274   -2.2320 O.2     1  UNL1       -0.5170
      4 O          22.0583   72.2919   -3.7238 O.3     1  UNL1       -0.3112
      5 C          22.4845   72.4911   -5.0729 C.3     1  UNL1        0.1811
      6 C          19.4467   70.7882   -5.9718 C.3     1  UNL1        0.2383
      7 C          19.2416   72.2409   -6.4715 C.3     1  UNL1        0.1895
      8 O          18.4070   72.2684   -7.6310 O.3     1  UNL1       -0.3779
      9 C          20.6871   72.6718   -6.8211 C.3     1  UNL1        0.1713
     10 C          21.5739   71.7020   -6.0169 C.3     1  UNL1        0.1764
     11 O          20.6995   70.8533   -5.2564 O.3     1  UNL1       -0.3308
     12 O          20.9267   72.5246   -8.2217 O.3     1  UNL1       -0.3794
     13 H          18.2486   73.1556   -7.9810 H       1  UNL1        0.2106
     14 H          20.3542   73.0691   -8.7787 H       1  UNL1        0.2105
     15 N          18.3592   70.3932   -5.0738 N.ar    1  UNL1       -0.2551
     16 C          17.2614   69.8010   -5.5769 C.ar    1  UNL1        0.3323
     17 N          16.2466   69.4277   -4.7750 N.ar    1  UNL1       -0.2743
     18 C          16.3178   69.6423   -3.4455 C.ar    1  UNL1        0.2626
     19 C          17.4679   70.2638   -2.9024 C.ar    1  UNL1        0.0795
     20 C          18.4720   70.6239   -3.7292 C.ar    1  UNL1        0.0869
     21 O          17.1836   69.6011   -6.7737 O.2     1  UNL1       -0.2464
     22 O          15.4001   69.3046   -2.7186 O.2     1  UNL1       -0.2670
     23 H          15.4618   69.0030   -5.1543 H       1  UNL1        0.1734
     24 O          22.2693   71.6223   -1.1899 O.3     1  UNL1       -0.2703
     25 P          22.6928   71.2673    0.3225 P.3     1  UNL1        0.2208
     26 O          21.7789   70.0574    0.8653 O.3     1  UNL1       -0.4371
     27 O          24.1154   70.8630    0.3548 O.2     1  UNL1       -0.5170
     28 O          22.4809   72.5614    1.2569 O.3     1  UNL1       -0.2865
     29 C          23.2074   73.7785    1.0775 C.3     1  UNL1        0.2611
     30 C          24.0997   74.0256    2.2963 C.3     1  UNL1        0.1582
     31 C          23.2187   74.1887    3.5387 C.3     1  UNL1        0.1625
     32 C          22.2286   75.3325    3.3027 C.3     1  UNL1        0.1686
     33 C          21.4082   75.0349    2.0448 C.3     1  UNL1        0.1760
     34 O          24.0392   74.4928    4.6690 O.3     1  UNL1       -0.3801
     35 O          22.9453   76.5561    3.1277 O.3     1  UNL1       -0.3794
     36 O          22.2892   74.8639    0.9328 O.3     1  UNL1       -0.3263
     37 H          23.5460   74.6088    5.4927 H       1  UNL1        0.2105
     38 H          22.3795   77.3254    2.9726 H       1  UNL1        0.2105
     39 C          26.2926   73.0939    2.8069 C.2     1  UNL1        0.2231
     40 C          27.2203   71.9227    2.9979 C.3     1  UNL1        0.0946
     41 N          25.0015   72.8859    2.4817 N.am    1  UNL1       -0.2994
     42 O          26.7076   74.2255    2.9458 O.2     1  UNL1       -0.2751
     43 H          24.6695   71.9813    2.3696 H       1  UNL1        0.1496
     44 C          20.4577   76.2013    1.7683 C.3     1  UNL1        0.1693
     45 O          19.7159   75.9397    0.5752 O.3     1  UNL1       -0.3794
     46 H          19.0918   76.6392    0.3381 H       1  UNL1        0.2105
@<TRIPOS>BOND
     1    29    30    1
     2    30    41    1
     3    30    31    1
     4    31    34    1
     5    31    32    1
     6    32    35    1
     7    32    33    1
     8    33    36    1
     9    33    44    1
    10    39    40    1
    11    39    42    2
    12    39    41   am
    13    41    43    1
    14    29    28    1
    15    34    37    1
    16    35    38    1
    17    29    36    1
    18    44    45    1
    19    45    46    1
    20    15     6    1
    21    15    16   ar
    22    16    21    2
    23    16    17   ar
    24    17    23    1
    25    17    18   ar
    26    18    19   ar
    27    19    20   ar
    28    15    20   ar
    29    18    22    2
    30     6     7    1
    31     6    11    1
    32     7     9    1
    33     7     8    1
    34     8    13    1
    35     9    10    1
    36     9    12    1
    37    10     5    1
    38    10    11    1
    39    12    14    1
    40     5     4    1
    41     4     1    1
    42     1     2    1
    43     1    24    1
    44     1     3    2
    45    24    25    1
    46    28    25    1
    47    25    26    1
    48    25    27    2
@<TRIPOS>MOLECULE
UD2
 46 48 0 0 0
SMALL
GASTEIGER

@<TRIPOS>ATOM
      1 P          19.4477   72.8641   -1.7181 P.3     1  UNL1        0.2189
      2 O          19.3392   74.1350   -2.7002 O.3     1  UNL1       -0.4371
      3 O          18.1847   72.7148   -0.9622 O.2     1  UNL1       -0.5170
      4 O          19.7129   71.5350   -2.5880 O.3     1  UNL1       -0.3112
      5 C          18.8946   70.3676   -2.4926 C.3     1  UNL1        0.1811
      6 C          17.1482   70.4503   -5.6359 C.3     1  UNL1        0.2383
      7 C          16.9845   68.9920   -5.1373 C.3     1  UNL1        0.1895
      8 O          15.7487   68.4343   -5.5887 O.3     1  UNL1       -0.3779
      9 C          16.9800   69.1725   -3.5995 C.3     1  UNL1        0.1713
     10 C          17.6582   70.5381   -3.3787 C.3     1  UNL1        0.1764
     11 O          18.0464   71.0365   -4.6688 O.3     1  UNL1       -0.3308
     12 O          15.6404   69.1928   -3.1035 O.3     1  UNL1       -0.3794
     13 H          15.6006   67.5227   -5.3029 H       1  UNL1        0.2106
     14 H          15.1468   68.3781   -3.2683 H       1  UNL1        0.2105
     15 N          17.7431   70.4743   -6.9740 N.ar    1  UNL1       -0.2551
     16 C          16.9471   70.4502   -8.0577 C.ar    1  UNL1        0.3323
     17 N          17.4665   70.4711   -9.2995 N.ar    1  UNL1       -0.2743
     18 C          18.8027   70.5187   -9.4755 C.ar    1  UNL1        0.2626
     19 C          19.6525   70.5455   -8.3436 C.ar    1  UNL1        0.0795
     20 C          19.1042   70.5279   -7.1104 C.ar    1  UNL1        0.0869
     21 O          15.7405   70.4074   -7.9140 O.2     1  UNL1       -0.2464
     22 O          19.2741   70.5381  -10.5989 O.2     1  UNL1       -0.2670
     23 H          16.8783   70.4520  -10.0700 H       1  UNL1        0.1734
     24 O          20.6668   73.0833   -0.6891 O.3     1  UNL1       -0.2703
     25 P          20.8738   72.7820    0.8792 P.3     1  UNL1        0.2208
     26 O          19.7070   73.5039    1.7224 O.3     1  UNL1       -0.4371
     27 O          20.8196   71.3223    1.1127 O.2     1  UNL1       -0.5170
     28 O          22.3057   73.3484    1.3499 O.3     1  UNL1       -0.2865
     29 C          22.4655   74.5993    2.0216 C.3     1  UNL1        0.2611
     30 C          23.8956   75.1072    1.8230 C.3     1  UNL1        0.1582
     31 C          24.8740   74.1119    2.4545 C.3     1  UNL1        0.1625
     32 C          24.5212   73.9344    3.9338 C.3     1  UNL1        0.1686
     33 C          23.0665   73.4715    4.0510 C.3     1  UNL1        0.1760
     34 O          26.2072   74.6143    2.3384 O.3     1  UNL1       -0.3801
     35 O          24.6833   75.1791    4.6162 O.3     1  UNL1       -0.3794
     36 O          22.2122   74.4258    3.4173 O.3     1  UNL1       -0.3263
     37 H          26.8805   74.0329    2.7176 H       1  UNL1        0.2105
     38 H          24.4757   75.1408    5.5603 H       1  UNL1        0.2105
     39 C          24.8517   76.2983   -0.0757 C.2     1  UNL1        0.2231
     40 C          25.1418   76.4238   -1.5483 C.3     1  UNL1        0.0946
     41 N          24.1773   75.2287    0.3904 N.am    1  UNL1       -0.2994
     42 O          25.2251   77.1605    0.6920 O.2     1  UNL1       -0.2751
     43 H          23.8776   74.5396   -0.2232 H       1  UNL1        0.1496
     44 C          22.6879   73.3493    5.5282 C.3     1  UNL1        0.1693
     45 O          21.2765   73.5196    5.6746 O.3     1  UNL1       -0.3794
     46 H          20.9646   73.4545    6.5876 H       1  UNL1        0.2105
@<TRIPOS>BOND
     1    29    30    1
     2    30    41    1
     3    30    31    1
     4    31    34    1
     5    31    32    1
     6    32    35    1
     7    32    33    1
     8    33    36    1
     9    33    44    1
    10    39    40    1
    11    39    42    2
    12    39    41   am
    13    41    43    1
    14    29    28    1
    15    34    37    1
    16    35    38    1
    17    29    36    1
    18    44    45    1
    19    45    46    1
    20    15     6    1
    21    15    16   ar
    22    16    21    2
    23    16    17   ar
    24    17    23    1
    25    17    18   ar
    26    18    19   ar
    27    19    20   ar
    28    15    20   ar
    29    18    22    2
    30     6     7    1
    31     6    11    1
    32     7     9    1
    33     7     8    1
    34     8    13    1
    35     9    10    1
    36     9    12    1
    37    10     5    1
    38    10    11    1
    39    12    14    1
    40     5     4    1
    41     4     1    1
    42     1     2    1
    43     1    24    1
    44     1     3    2
    45    24    25    1
    46    28    25    1
    47    25    26    1
    48    25    27    2
@<TRIPOS>MOLECULE
UD2
 46 48 0 0 0
SMALL
GASTEIGER

@<TRIPOS>ATOM
      1 P          23.1450   72.3423   -3.1043 P.3     1  UNL1        0.2189
      2 O          24.2054   72.6931   -4.2635 O.3     1  UNL1       -0.4371
      3 O          23.1755   70.8888   -2.8304 O.2     1  UNL1       -0.5170
      4 O          23.5284   73.1493   -1.7643 O.3     1  UNL1       -0.3112
      5 C          22.6311   73.2965   -0.6622 C.3     1  UNL1        0.1811
      6 C          24.3960   71.9883    2.1857 C.3     1  UNL1        0.2383
      7 C          23.1433   72.6759    2.7857 C.3     1  UNL1        0.1895
      8 O          22.7243   72.0177    3.9827 O.3     1  UNL1       -0.3779
      9 C          22.0985   72.4895    1.6582 C.3     1  UNL1        0.1713
     10 C          22.9466   72.2375    0.3969 C.3     1  UNL1        0.1764
     11 O          24.3269   72.3294    0.7840 O.3     1  UNL1       -0.3308
     12 O          21.2634   71.3636    1.9331 O.3     1  UNL1       -0.3794
     13 H          21.9442   72.4116    4.3961 H       1  UNL1        0.2106
     14 H          20.7504   71.4432    2.7486 H       1  UNL1        0.2105
     15 N          25.6179   72.5260    2.7882 N.ar    1  UNL1       -0.2551
     16 C          26.7490   71.7989    2.7631 C.ar    1  UNL1        0.3323
     17 N          27.8864   72.2680    3.3093 N.ar    1  UNL1       -0.2743
     18 C          27.9083   73.4839    3.8922 C.ar    1  UNL1        0.2626
     19 C          26.7251   74.2605    3.9248 C.ar    1  UNL1        0.0795
     20 C          25.6002   73.7671    3.3657 C.ar    1  UNL1        0.0869
     21 O          26.7440   70.7009    2.2408 O.2     1  UNL1       -0.2464
     22 O          28.9372   73.9099    4.3865 O.2     1  UNL1       -0.2670
     23 H          28.6928   71.7303    3.2836 H       1  UNL1        0.1734
     24 O          21.6671   72.7680   -3.5818 O.3     1  UNL1       -0.2703
     25 P          20.1822   72.2905   -3.1817 P.3     1  UNL1        0.2208
     26 O          20.2509   70.8247   -2.5180 O.3     1  UNL1       -0.4371
     27 O          19.6019   73.2442   -2.2110 O.2     1  UNL1       -0.5170
     28 O          19.2610   72.2399   -4.5013 O.3     1  UNL1       -0.2865
     29 C          19.5801   71.4430   -5.6434 C.3     1  UNL1        0.2611
     30 C          19.1913   72.1968   -6.9175 C.3     1  UNL1        0.1582
     31 C          17.6773   72.4293   -6.9210 C.3     1  UNL1        0.1625
     32 C          16.9641   71.0794   -6.8046 C.3     1  UNL1        0.1686
     33 C          17.4388   70.3686   -5.5345 C.3     1  UNL1        0.1760
     34 O          17.2953   73.0677   -8.1416 O.3     1  UNL1       -0.3801
     35 O          17.2722   70.2765   -7.9455 O.3     1  UNL1       -0.3794
     36 O          18.8583   70.2112   -5.5809 O.3     1  UNL1       -0.3263
     37 H          16.3475   73.2464   -8.2116 H       1  UNL1        0.2105
     38 H          16.8535   69.4044   -7.9383 H       1  UNL1        0.2105
     39 C          21.2157   73.5310   -7.1611 C.2     1  UNL1        0.2231
     40 C          21.9294   74.8568   -7.1988 C.3     1  UNL1        0.0946
     41 N          19.8849   73.4869   -6.9537 N.am    1  UNL1       -0.2994
     42 O          21.8389   72.5018   -7.3175 O.2     1  UNL1       -0.2751
     43 H          19.3864   74.3094   -6.8277 H       1  UNL1        0.1496
     44 C          16.7756   68.9931   -5.4420 C.3     1  UNL1        0.1693
     45 O          15.5957   68.9771   -6.2482 O.3     1  UNL1       -0.3794
     46 H          15.1226   68.1339   -6.2373 H       1  UNL1        0.2105
@<TRIPOS>BOND
     1    29    30    1
     2    30    41    1
     3    30    31    1
     4    31    34    1
     5    31    32    1
     6    32    35    1
     7    32    33    1
     8    33    36    1
     9    33    44    1
    10    39    40    1
    11    39    42    2
    12    39    41   am
    13    41    43    1
    14    29    28    1
    15    34    37    1
    16    35    38    1
    17    29    36    1
    18    44    45    1
    19    45    46    1
    20    15     6    1
    21    15    16   ar
    22    16    21    2
    23    16    17   ar
    24    17    23    1
    25    17    18   ar
    26    18    19   ar
    27    19    20   ar
    28    15    20   ar
    29    18    22    2
    30     6     7    1
    31     6    11    1
    32     7     9    1
    33     7     8    1
    34     8    13    1
    35     9    10    1
    36     9    12    1
    37    10     5    1
    38    10    11    1
    39    12    14    1
    40     5     4    1
    41     4     1    1
    42     1     2    1
    43     1    24    1
    44     1     3    2
    45    24    25    1
    46    28    25    1
    47    25    26    1
    48    25    27    2
@<TRIPOS>MOLECULE
UD2
 46 48 0 0 0
SMALL
GASTEIGER

@<TRIPOS>ATOM
      1 P          21.5242   71.2624   -0.3390 P.3     1  UNL1        0.2189
      2 O          23.0395   71.0195   -0.8249 O.3     1  UNL1       -0.4371
      3 O          21.1746   70.2715    0.7026 O.2     1  UNL1       -0.5170
      4 O          21.3865   72.7485    0.2661 O.3     1  UNL1       -0.3112
      5 C          22.3166   73.7942   -0.0220 C.3     1  UNL1        0.1811
      6 C          24.8061   74.0790    2.5582 C.3     1  UNL1        0.2383
      7 C          25.1469   75.2152    1.5607 C.3     1  UNL1        0.1895
      8 O          25.7376   76.3271    2.2365 O.3     1  UNL1       -0.3779
      9 C          23.7516   75.5865    1.0015 C.3     1  UNL1        0.1713
     10 C          22.8883   74.3430    1.2876 C.3     1  UNL1        0.1764
     11 O          23.7410   73.3613    1.8980 O.3     1  UNL1       -0.3308
     12 O          23.2280   76.7272    1.6838 O.3     1  UNL1       -0.3794
     13 H          25.9692   77.0636    1.6546 H       1  UNL1        0.2106
     14 H          23.7648   77.5252    1.5866 H       1  UNL1        0.2105
     15 N          25.9656   73.2082    2.7639 N.ar    1  UNL1       -0.2551
     16 C          25.9312   71.9377    2.3238 C.ar    1  UNL1        0.3323
     17 N          26.9822   71.1151    2.4993 N.ar    1  UNL1       -0.2743
     18 C          28.0936   71.5572    3.1220 C.ar    1  UNL1        0.2626
     19 C          28.1440   72.8926    3.5894 C.ar    1  UNL1        0.0795
     20 C          27.0773   73.6965    3.3961 C.ar    1  UNL1        0.0869
     21 O          24.9356   71.5256    1.7605 O.2     1  UNL1       -0.2464
     22 O          29.0457   70.8138    3.2811 O.2     1  UNL1       -0.2670
     23 H          26.9403   70.2016    2.1769 H       1  UNL1        0.1734
     24 O          20.5258   71.0993   -1.5920 O.3     1  UNL1       -0.2703
     25 P          19.3515   72.0104   -2.2116 P.3     1  UNL1        0.2208
     26 O          18.4109   72.5542   -1.0228 O.3     1  UNL1       -0.4371
     27 O          19.9452   73.1569   -2.9338 O.2     1  UNL1       -0.5170
     28 O          18.4714   71.1299   -3.2327 O.3     1  UNL1       -0.2865
     29 C          17.5534   71.7046   -4.1646 C.3     1  UNL1        0.2611
     30 C          16.3675   70.7577   -4.3641 C.3     1  UNL1        0.1582
     31 C          16.8721   69.4402   -4.9607 C.3     1  UNL1        0.1625
     32 C          17.6072   69.7339   -6.2712 C.3     1  UNL1        0.1686
     33 C          18.7456   70.7205   -5.9980 C.3     1  UNL1        0.1760
     34 O          15.7621   68.5772   -5.2187 O.3     1  UNL1       -0.3801
     35 O          16.6960   70.3040   -7.2125 O.3     1  UNL1       -0.3794
     36 O          18.2122   71.9115   -5.4157 O.3     1  UNL1       -0.3263
     37 H          16.0089   67.7223   -5.5975 H       1  UNL1        0.2105
     38 H          17.0949   70.5168   -8.0679 H       1  UNL1        0.2105
     39 C          16.0867   69.4198   -2.3470 C.2     1  UNL1        0.2231
     40 C          15.4287   69.1511   -1.0190 C.3     1  UNL1        0.0946
     41 N          15.7269   70.4969   -3.0726 N.am    1  UNL1       -0.2994
     42 O          16.9412   68.6663   -2.7643 O.2     1  UNL1       -0.2751
     43 H          15.0430   71.0991   -2.7398 H       1  UNL1        0.1496
     44 C          19.4477   71.0654   -7.3128 C.3     1  UNL1        0.1693
     45 O          18.8381   72.2219   -7.8901 O.3     1  UNL1       -0.3794
     46 H          19.2334   72.4988   -8.7280 H       1  UNL1        0.2105
@<TRIPOS>BOND
     1    29    30    1
     2    30    41    1
     3    30    31    1
     4    31    34    1
     5    31    32    1
     6    32    35    1
     7    32    33    1
     8    33    36    1
     9    33    44    1
    10    39    40    1
    11    39    42    2
    12    39    41   am
    13    41    43    1
    14    29    28    1
    15    34    37    1
    16    35    38    1
    17    29    36    1
    18    44    45    1
    19    45    46    1
    20    15     6    1
    21    15    16   ar
    22    16    21    2
    23    16    17   ar
    24    17    23    1
    25    17    18   ar
    26    18    19   ar
    27    19    20   ar
    28    15    20   ar
    29    18    22    2
    30     6     7    1
    31     6    11    1
    32     7     9    1
    33     7     8    1
    34     8    13    1
    35     9    10    1
    36     9    12    1
    37    10     5    1
    38    10    11    1
    39    12    14    1
    40     5     4    1
    41     4     1    1
    42     1     2    1
    43     1    24    1
    44     1     3    2
    45    24    25    1
    46    28    25    1
    47    25    26    1
    48    25    27    2
@<TRIPOS>MOLECULE
UD2
 46 48 0 0 0
SMALL
GASTEIGER

@<TRIPOS>ATOM
      1 P          20.9499   71.0274   -3.7282 P.3     1  UNL1        0.2189
      2 O          21.7051   70.6368   -2.3613 O.3     1  UNL1       -0.4371
      3 O          20.6065   69.7956   -4.4722 O.2     1  UNL1       -0.5170
      4 O          19.6025   71.8395   -3.3834 O.3     1  UNL1       -0.3112
      5 C          18.5154   71.2673   -2.6539 C.3     1  UNL1        0.1811
      6 C          16.9582   70.5867   -5.8238 C.3     1  UNL1        0.2383
      7 C          17.0430   69.2050   -5.1266 C.3     1  UNL1        0.1895
      8 O          15.9598   68.3640   -5.5277 O.3     1  UNL1       -0.3779
      9 C          16.9211   69.5873   -3.6311 C.3     1  UNL1        0.1713
     10 C          17.3190   71.0751   -3.5891 C.3     1  UNL1        0.1764
     11 O          17.6769   71.4601   -4.9260 O.3     1  UNL1       -0.3308
     12 O          15.5764   69.4159   -3.1804 O.3     1  UNL1       -0.3794
     13 H          15.9693   67.4880   -5.1187 H       1  UNL1        0.2106
     14 H          15.2535   68.5067   -3.2407 H       1  UNL1        0.2105
     15 N          17.6102   70.5439   -7.1346 N.ar    1  UNL1       -0.2551
     16 C          16.8621   70.5661   -8.2520 C.ar    1  UNL1        0.3323
     17 N          17.4344   70.5276   -9.4698 N.ar    1  UNL1       -0.2743
     18 C          18.7765   70.4677   -9.5874 C.ar    1  UNL1        0.2626
     19 C          19.5763   70.4448   -8.4195 C.ar    1  UNL1        0.0795
     20 C          18.9758   70.4886   -7.2116 C.ar    1  UNL1        0.0869
     21 O          15.6508   70.6202   -8.1611 O.2     1  UNL1       -0.2464
     22 O          19.2959   70.4333  -10.6890 O.2     1  UNL1       -0.2670
     23 H          16.8802   70.5432  -10.2653 H       1  UNL1        0.1734
     24 O          21.9147   71.9485   -4.6304 O.3     1  UNL1       -0.2703
     25 P          22.9831   73.1071   -4.3003 P.3     1  UNL1        0.2208
     26 O          22.5152   73.9087   -2.9841 O.3     1  UNL1       -0.4371
     27 O          24.3111   72.5006   -4.0617 O.2     1  UNL1       -0.5170
     28 O          23.0731   74.1245   -5.5451 O.3     1  UNL1       -0.2865
     29 C          22.3050   73.9637   -6.7390 C.3     1  UNL1        0.2611
     30 C          22.6872   75.0535   -7.7434 C.3     1  UNL1        0.1582
     31 C          22.3449   76.4242   -7.1513 C.3     1  UNL1        0.1625
     32 C          20.8558   76.4579   -6.7969 C.3     1  UNL1        0.1686
     33 C          20.5442   75.3136   -5.8287 C.3     1  UNL1        0.1760
     34 O          22.6304   77.4437   -8.1118 O.3     1  UNL1       -0.3801
     35 O          20.0783   76.3035   -7.9856 O.3     1  UNL1       -0.3794
     36 O          20.9142   74.0703   -6.4281 O.3     1  UNL1       -0.3263
     37 H          22.4377   78.3396   -7.8029 H       1  UNL1        0.2105
     38 H          19.1226   76.3146   -7.8355 H       1  UNL1        0.2105
     39 C          24.5872   75.2373   -9.2579 C.2     1  UNL1        0.2231
     40 C          26.0649   75.1660   -9.5408 C.3     1  UNL1        0.0946
     41 N          24.1247   74.9838   -8.0178 N.am    1  UNL1       -0.2994
     42 O          23.8124   75.5231  -10.1468 O.2     1  UNL1       -0.2751
     43 H          24.7437   74.7542   -7.3071 H       1  UNL1        0.1496
     44 C          19.0466   75.3038   -5.5162 C.3     1  UNL1        0.1693
     45 O          18.7129   74.1026   -4.8174 O.3     1  UNL1       -0.3794
     46 H          17.7769   74.0284   -4.5865 H       1  UNL1        0.2105
@<TRIPOS>BOND
     1    29    30    1
     2    30    41    1
     3    30    31    1
     4    31    34    1
     5    31    32    1
     6    32    35    1
     7    32    33    1
     8    33    36    1
     9    33    44    1
    10    39    40    1
    11    39    42    2
    12    39    41   am
    13    41    43    1
    14    29    28    1
    15    34    37    1
    16    35    38    1
    17    29    36    1
    18    44    45    1
    19    45    46    1
    20    15     6    1
    21    15    16   ar
    22    16    21    2
    23    16    17   ar
    24    17    23    1
    25    17    18   ar
    26    18    19   ar
    27    19    20   ar
    28    15    20   ar
    29    18    22    2
    30     6     7    1
    31     6    11    1
    32     7     9    1
    33     7     8    1
    34     8    13    1
    35     9    10    1
    36     9    12    1
    37    10     5    1
    38    10    11    1
    39    12    14    1
    40     5     4    1
    41     4     1    1
    42     1     2    1
    43     1    24    1
    44     1     3    2
    45    24    25    1
    46    28    25    1
    47    25    26    1
    48    25    27    2
@<TRIPOS>MOLECULE
UD2
 46 48 0 0 0
SMALL
GASTEIGER

@<TRIPOS>ATOM
      1 P          22.9173   72.0214   -3.2993 P.3     1  UNL1        0.2189
      2 O          24.0503   72.7668   -4.1664 O.3     1  UNL1       -0.4371
      3 O          23.5369   70.9395   -2.5027 O.2     1  UNL1       -0.5170
      4 O          22.2147   73.0809   -2.3106 O.3     1  UNL1       -0.3112
      5 C          22.8337   73.5558   -1.1136 C.3     1  UNL1        0.1811
      6 C          24.4744   71.9841    1.6747 C.3     1  UNL1        0.2383
      7 C          23.0617   72.3397    2.2037 C.3     1  UNL1        0.1895
      8 O          22.6349   71.3988    3.1907 O.3     1  UNL1       -0.3779
      9 C          22.1975   72.2279    0.9238 C.3     1  UNL1        0.1713
     10 C          23.2111   72.3656   -0.2282 C.3     1  UNL1        0.1764
     11 O          24.5022   72.5854    0.3619 O.3     1  UNL1       -0.3308
     12 O          21.5480   70.9566    0.8699 O.3     1  UNL1       -0.3794
     13 H          21.7567   71.5790    3.5526 H       1  UNL1        0.2106
     14 H          20.9418   70.7923    1.6047 H       1  UNL1        0.2105
     15 N          25.5083   72.5682    2.5320 N.ar    1  UNL1       -0.2551
     16 C          26.6560   71.8993    2.7420 C.ar    1  UNL1        0.3323
     17 N          27.6233   72.4120    3.5254 N.ar    1  UNL1       -0.2743
     18 C          27.4545   73.6136    4.1137 C.ar    1  UNL1        0.2626
     19 C          26.2517   74.3291    3.9005 C.ar    1  UNL1        0.0795
     20 C          25.3007   73.7931    3.1070 C.ar    1  UNL1        0.0869
     21 O          26.8220   70.8148    2.2177 O.2     1  UNL1       -0.2464
     22 O          28.3294   74.0789    4.8227 O.2     1  UNL1       -0.2670
     23 H          28.4443   71.9159    3.6672 H       1  UNL1        0.1734
     24 O          21.8106   71.3946   -4.2871 O.3     1  UNL1       -0.2703
     25 P          20.3088   70.8510   -4.0821 P.3     1  UNL1        0.2208
     26 O          20.2933   69.2479   -4.2358 O.3     1  UNL1       -0.4371
     27 O          19.8298   71.2211   -2.7323 O.2     1  UNL1       -0.5170
     28 O          19.3446   71.5064   -5.1927 O.3     1  UNL1       -0.2865
     29 C          18.1312   70.8921   -5.6303 C.3     1  UNL1        0.2611
     30 C          17.6585   71.5589   -6.9244 C.3     1  UNL1        0.1582
     31 C          17.3588   73.0354   -6.6478 C.3     1  UNL1        0.1625
     32 C          16.3168   73.1331   -5.5303 C.3     1  UNL1        0.1686
     33 C          16.8414   72.4055   -4.2896 C.3     1  UNL1        0.1760
     34 O          16.8468   73.6486   -7.8332 O.3     1  UNL1       -0.3801
     35 O          15.0969   72.5263   -5.9603 O.3     1  UNL1       -0.3794
     36 O          17.1294   71.0461   -4.6229 O.3     1  UNL1       -0.3263
     37 H          16.6356   74.5867   -7.7305 H       1  UNL1        0.2105
     38 H          14.3903   72.5513   -5.3000 H       1  UNL1        0.2105
     39 C          18.5029   70.7160   -9.0491 C.2     1  UNL1        0.2231
     40 C          19.5819   70.6082  -10.0944 C.3     1  UNL1        0.0946
     41 N          18.7087   71.4543   -7.9406 N.am    1  UNL1       -0.2994
     42 O          17.4476   70.1378   -9.2045 O.2     1  UNL1       -0.2751
     43 H          19.5526   71.9160   -7.8155 H       1  UNL1        0.1496
     44 C          15.7810   72.4472   -3.1877 C.3     1  UNL1        0.1693
     45 O          14.9961   71.2539   -3.2356 O.3     1  UNL1       -0.3794
     46 H          14.3021   71.2117   -2.5635 H       1  UNL1        0.2105
@<TRIPOS>BOND
     1    29    30    1
     2    30    41    1
     3    30    31    1
     4    31    34    1
     5    31    32    1
     6    32    35    1
     7    32    33    1
     8    33    36    1
     9    33    44    1
    10    39    40    1
    11    39    42    2
    12    39    41   am
    13    41    43    1
    14    29    28    1
    15    34    37    1
    16    35    38    1
    17    29    36    1
    18    44    45    1
    19    45    46    1
    20    15     6    1
    21    15    16   ar
    22    16    21    2
    23    16    17   ar
    24    17    23    1
    25    17    18   ar
    26    18    19   ar
    27    19    20   ar
    28    15    20   ar
    29    18    22    2
    30     6     7    1
    31     6    11    1
    32     7     9    1
    33     7     8    1
    34     8    13    1
    35     9    10    1
    36     9    12    1
    37    10     5    1
    38    10    11    1
    39    12    14    1
    40     5     4    1
    41     4     1    1
    42     1     2    1
    43     1    24    1
    44     1     3    2
    45    24    25    1
    46    28    25    1
    47    25    26    1
    48    25    27    2
@<TRIPOS>MOLECULE
UD2
 46 48 0 0 0
SMALL
GASTEIGER

@<TRIPOS>ATOM
      1 P          23.4227   72.1042   -3.3377 P.3     1  UNL1        0.2189
      2 O          24.1805   72.8441   -4.5500 O.3     1  UNL1       -0.4371
      3 O          24.1698   70.8847   -2.9591 O.2     1  UNL1       -0.5170
      4 O          23.3386   73.0968   -2.0722 O.3     1  UNL1       -0.3112
      5 C          22.4200   72.9061   -0.9946 C.3     1  UNL1        0.1811
      6 C          24.4927   72.1167    1.8369 C.3     1  UNL1        0.2383
      7 C          23.0902   72.3795    2.4418 C.3     1  UNL1        0.1895
      8 O          22.8871   71.5950    3.6187 O.3     1  UNL1       -0.3779
      9 C          22.1517   71.9165    1.3006 C.3     1  UNL1        0.1713
     10 C          23.0382   71.9641    0.0415 C.3     1  UNL1        0.1764
     11 O          24.3261   72.4572    0.4433 O.3     1  UNL1       -0.3308
     12 O          21.6940   70.5847    1.5405 O.3     1  UNL1       -0.3794
     13 H          22.0239   71.7250    4.0343 H       1  UNL1        0.2106
     14 H          21.1796   70.4851    2.3529 H       1  UNL1        0.2105
     15 N          25.4950   72.9815    2.4634 N.ar    1  UNL1       -0.2551
     16 C          25.3054   74.3127    2.4870 C.ar    1  UNL1        0.3323
     17 N          26.2101   75.1314    3.0559 N.ar    1  UNL1       -0.2743
     18 C          27.3269   74.6240    3.6161 C.ar    1  UNL1        0.2626
     19 C          27.5387   73.2244    3.5994 C.ar    1  UNL1        0.0795
     20 C          26.6131   72.4270    3.0260 C.ar    1  UNL1        0.0869
     21 O          24.3029   74.7841    1.9858 O.2     1  UNL1       -0.2464
     22 O          28.1462   75.3639    4.1317 O.2     1  UNL1       -0.2670
     23 H          26.0584   76.0890    3.0631 H       1  UNL1        0.1734
     24 O          21.9345   71.7000   -3.8016 O.3     1  UNL1       -0.2703
     25 P          20.9690   72.1756   -4.9993 P.3     1  UNL1        0.2208
     26 O          20.9225   73.7848   -5.0436 O.3     1  UNL1       -0.4371
     27 O          21.4887   71.6621   -6.2857 O.2     1  UNL1       -0.5170
     28 O          19.4849   71.6020   -4.7522 O.3     1  UNL1       -0.2865
     29 C          19.1178   70.2487   -5.0261 C.3     1  UNL1        0.2611
     30 C          18.0566   70.2201   -6.1288 C.3     1  UNL1        0.1582
     31 C          16.8034   70.9518   -5.6385 C.3     1  UNL1        0.1625
     32 C          16.3145   70.2941   -4.3452 C.3     1  UNL1        0.1686
     33 C          17.4431   70.3199   -3.3110 C.3     1  UNL1        0.1760
     34 O          15.7810   70.8666   -6.6338 O.3     1  UNL1       -0.3801
     35 O          15.9391   68.9412   -4.6096 O.3     1  UNL1       -0.3794
     36 O          18.5884   69.6500   -3.8414 O.3     1  UNL1       -0.3263
     37 H          14.9571   71.3103   -6.3898 H       1  UNL1        0.2105
     38 H          15.6193   68.4619   -3.8325 H       1  UNL1        0.2105
     39 C          18.5537   70.2523   -8.5141 C.2     1  UNL1        0.2231
     40 C          19.0875   70.9372   -9.7448 C.3     1  UNL1        0.0946
     41 N          18.5763   70.8868   -7.3254 N.am    1  UNL1       -0.2994
     42 O          18.1029   69.1285   -8.5924 O.2     1  UNL1       -0.2751
     43 H          18.9376   71.7849   -7.2622 H       1  UNL1        0.1496
     44 C          16.9823   69.6113   -2.0359 C.3     1  UNL1        0.1693
     45 O          17.3480   68.2312   -2.0983 O.3     1  UNL1       -0.3794
     46 H          17.0866   67.7189   -1.3210 H       1  UNL1        0.2105
@<TRIPOS>BOND
     1    29    30    1
     2    30    41    1
     3    30    31    1
     4    31    34    1
     5    31    32    1
     6    32    35    1
     7    32    33    1
     8    33    36    1
     9    33    44    1
    10    39    40    1
    11    39    42    2
    12    39    41   am
    13    41    43    1
    14    29    28    1
    15    34    37    1
    16    35    38    1
    17    29    36    1
    18    44    45    1
    19    45    46    1
    20    15     6    1
    21    15    16   ar
    22    16    21    2
    23    16    17   ar
    24    17    23    1
    25    17    18   ar
    26    18    19   ar
    27    19    20   ar
    28    15    20   ar
    29    18    22    2
    30     6     7    1
    31     6    11    1
    32     7     9    1
    33     7     8    1
    34     8    13    1
    35     9    10    1
    36     9    12    1
    37    10     5    1
    38    10    11    1
    39    12    14    1
    40     5     4    1
    41     4     1    1
    42     1     2    1
    43     1    24    1
    44     1     3    2
    45    24    25    1
    46    28    25    1
    47    25    26    1
    48    25    27    2
@<TRIPOS>MOLECULE
UD2
 46 48 0 0 0
SMALL
GASTEIGER

@<TRIPOS>ATOM
      1 P          15.8975   70.4642   -2.8852 P.3     1  UNL1        0.2189
      2 O          15.9439   69.1059   -3.7478 O.3     1  UNL1       -0.4371
      3 O          15.6648   71.6141   -3.7865 O.2     1  UNL1       -0.5170
      4 O          14.7029   70.3756   -1.8087 O.3     1  UNL1       -0.3112
      5 C          14.6216   69.3465   -0.8209 C.3     1  UNL1        0.1811
      6 C          11.9191   67.9493    1.0977 C.3     1  UNL1        0.2383
      7 C          12.0148   69.4212    1.5737 C.3     1  UNL1        0.1895
      8 O          10.7327   69.9143    1.9672 O.3     1  UNL1       -0.3779
      9 C          12.5170   70.1432    0.2994 C.3     1  UNL1        0.1713
     10 C          13.1519   69.0209   -0.5438 C.3     1  UNL1        0.1764
     11 O          13.0555   67.8068    0.2179 O.3     1  UNL1       -0.3308
     12 O          11.4230   70.7377   -0.4010 O.3     1  UNL1       -0.3794
     13 H          10.7408   70.8312    2.2736 H       1  UNL1        0.2106
     14 H          10.9494   71.4107    0.1062 H       1  UNL1        0.2105
     15 N          12.0276   67.0316    2.2339 N.ar    1  UNL1       -0.2551
     16 C          13.2360   66.5762    2.6097 C.ar    1  UNL1        0.3323
     17 N          13.3654   65.7317    3.6501 N.ar    1  UNL1       -0.2743
     18 C          12.2768   65.3290    4.3367 C.ar    1  UNL1        0.2626
     19 C          10.9987   65.8014    3.9527 C.ar    1  UNL1        0.0795
     20 C          10.8990   66.6505    2.9084 C.ar    1  UNL1        0.0869
     21 O          14.2262   66.9311    1.9998 O.2     1  UNL1       -0.2464
     22 O          12.3925   64.5651    5.2788 O.2     1  UNL1       -0.2670
     23 H          14.2440   65.4120    3.9069 H       1  UNL1        0.1734
     24 O          17.2987   70.6599   -2.1159 O.3     1  UNL1       -0.2703
     25 P          18.6614   71.4466   -2.4580 P.3     1  UNL1        0.2208
     26 O          18.6954   72.8377   -1.6472 O.3     1  UNL1       -0.4371
     27 O          19.8219   70.6181   -2.0637 O.2     1  UNL1       -0.5170
     28 O          18.7265   71.7446   -4.0390 O.3     1  UNL1       -0.2865
     29 C          19.4872   70.9494   -4.9503 C.3     1  UNL1        0.2611
     30 C          20.3869   71.8570   -5.7926 C.3     1  UNL1        0.1582
     31 C          19.5116   72.8036   -6.6198 C.3     1  UNL1        0.1625
     32 C          18.5543   71.9749   -7.4807 C.3     1  UNL1        0.1686
     33 C          17.7249   71.0626   -6.5730 C.3     1  UNL1        0.1760
     34 O          20.3412   73.6049   -7.4643 O.3     1  UNL1       -0.3801
     35 O          19.3052   71.1799   -8.4001 O.3     1  UNL1       -0.3794
     36 O          18.6000   70.2302   -5.8093 O.3     1  UNL1       -0.3263
     37 H          19.8520   74.2295   -8.0172 H       1  UNL1        0.2105
     38 H          18.7614   70.6270   -8.9785 H       1  UNL1        0.2105
     39 C          22.5532   72.8197   -5.2284 C.2     1  UNL1        0.2231
     40 C          23.4473   73.6242   -4.3219 C.3     1  UNL1        0.0946
     41 N          21.2561   72.6395   -4.9102 N.am    1  UNL1       -0.2994
     42 O          23.0004   72.3333   -6.2461 O.2     1  UNL1       -0.2751
     43 H          20.8983   73.0274   -4.0962 H       1  UNL1        0.1496
     44 C          16.8077   70.1882   -7.4301 C.3     1  UNL1        0.1693
     45 O          16.4907   70.8747   -8.6428 O.3     1  UNL1       -0.3794
     46 H          15.9110   70.3782   -9.2365 H       1  UNL1        0.2105
@<TRIPOS>BOND
     1    29    30    1
     2    30    41    1
     3    30    31    1
     4    31    34    1
     5    31    32    1
     6    32    35    1
     7    32    33    1
     8    33    36    1
     9    33    44    1
    10    39    40    1
    11    39    42    2
    12    39    41   am
    13    41    43    1
    14    29    28    1
    15    34    37    1
    16    35    38    1
    17    29    36    1
    18    44    45    1
    19    45    46    1
    20    15     6    1
    21    15    16   ar
    22    16    21    2
    23    16    17   ar
    24    17    23    1
    25    17    18   ar
    26    18    19   ar
    27    19    20   ar
    28    15    20   ar
    29    18    22    2
    30     6     7    1
    31     6    11    1
    32     7     9    1
    33     7     8    1
    34     8    13    1
    35     9    10    1
    36     9    12    1
    37    10     5    1
    38    10    11    1
    39    12    14    1
    40     5     4    1
    41     4     1    1
    42     1     2    1
    43     1    24    1
    44     1     3    2
    45    24    25    1
    46    28    25    1
    47    25    26    1
    48    25    27    2
@<TRIPOS>MOLECULE
UD2
 46 48 0 0 0
SMALL
GASTEIGER

@<TRIPOS>ATOM
      1 P          20.6445   71.3638   -1.5885 P.3     1  UNL1        0.2189
      2 O          21.7173   70.6540   -2.5564 O.3     1  UNL1       -0.4371
      3 O          20.4462   70.5350   -0.3791 O.2     1  UNL1       -0.5170
      4 O          21.1884   72.8177   -1.1597 O.3     1  UNL1       -0.3112
      5 C          22.5004   73.0335   -0.6366 C.3     1  UNL1        0.1811
      6 C          24.3232   71.7783    2.1986 C.3     1  UNL1        0.2383
      7 C          23.2613   72.7288    2.8077 C.3     1  UNL1        0.1895
      8 O          22.8703   72.2890    4.1098 O.3     1  UNL1       -0.3779
      9 C          22.0900   72.5937    1.8042 C.3     1  UNL1        0.1713
     10 C          22.7542   72.0629    0.5194 C.3     1  UNL1        0.1764
     11 O          24.1643   71.9659    0.7755 O.3     1  UNL1       -0.3308
     12 O          21.1224   71.6614    2.2893 O.3     1  UNL1       -0.3794
     13 H          22.2076   72.8518    4.5328 H       1  UNL1        0.2106
     14 H          20.7146   71.9170    3.1277 H       1  UNL1        0.2105
     15 N          25.6693   72.1687    2.6237 N.ar    1  UNL1       -0.2551
     16 C          25.9005   73.4299    3.0294 C.ar    1  UNL1        0.3323
     17 N          27.1277   73.8164    3.4253 N.ar    1  UNL1       -0.2743
     18 C          28.1501   72.9371    3.4223 C.ar    1  UNL1        0.2626
     19 C          27.9208   71.6059    2.9986 C.ar    1  UNL1        0.0795
     20 C          26.6794   71.2448    2.6110 C.ar    1  UNL1        0.0869
     21 O          24.9880   74.2335    3.0375 O.2     1  UNL1       -0.2464
     22 O          29.2612   73.2855    3.7808 O.2     1  UNL1       -0.2670
     23 H          27.2773   74.7300    3.7137 H       1  UNL1        0.1734
     24 O          19.2432   71.5236   -2.3658 O.3     1  UNL1       -0.2703
     25 P          18.7320   71.1300   -3.8411 P.3     1  UNL1        0.2208
     26 O          18.5118   69.5368   -3.9251 O.3     1  UNL1       -0.4371
     27 O          17.4534   71.8195   -4.1207 O.2     1  UNL1       -0.5170
     28 O          19.8327   71.5781   -4.9276 O.3     1  UNL1       -0.2865
     29 C          19.9619   72.9215   -5.3964 C.3     1  UNL1        0.2611
     30 C          20.2000   72.9147   -6.9084 C.3     1  UNL1        0.1582
     31 C          21.5161   72.1897   -7.2059 C.3     1  UNL1        0.1625
     32 C          22.6503   72.8793   -6.4428 C.3     1  UNL1        0.1686
     33 C          22.3176   72.8874   -4.9484 C.3     1  UNL1        0.1760
     34 O          21.7834   72.2426   -8.6092 O.3     1  UNL1       -0.3801
     35 O          22.7917   74.2226   -6.9085 O.3     1  UNL1       -0.3794
     36 O          21.0676   73.5490   -4.7439 O.3     1  UNL1       -0.3263
     37 H          22.6033   71.8011   -8.8699 H       1  UNL1        0.2105
     38 H          23.4936   74.7209   -6.4669 H       1  UNL1        0.2105
     39 C          19.1890   70.8994   -7.8325 C.2     1  UNL1        0.2231
     40 C          18.0545   70.1832   -8.5170 C.3     1  UNL1        0.0946
     41 N          19.0961   72.2188   -7.5744 N.am    1  UNL1       -0.2994
     42 O          20.1876   70.2885   -7.5132 O.2     1  UNL1       -0.2751
     43 H          18.2984   72.7078   -7.8305 H       1  UNL1        0.1496
     44 C          23.4177   73.6276   -4.1853 C.3     1  UNL1        0.1693
     45 O          24.5190   72.7450   -3.9604 O.3     1  UNL1       -0.3794
     46 H          25.2551   73.1482   -3.4802 H       1  UNL1        0.2105
@<TRIPOS>BOND
     1    29    30    1
     2    30    41    1
     3    30    31    1
     4    31    34    1
     5    31    32    1
     6    32    35    1
     7    32    33    1
     8    33    36    1
     9    33    44    1
    10    39    40    1
    11    39    42    2
    12    39    41   am
    13    41    43    1
    14    29    28    1
    15    34    37    1
    16    35    38    1
    17    29    36    1
    18    44    45    1
    19    45    46    1
    20    15     6    1
    21    15    16   ar
    22    16    21    2
    23    16    17   ar
    24    17    23    1
    25    17    18   ar
    26    18    19   ar
    27    19    20   ar
    28    15    20   ar
    29    18    22    2
    30     6     7    1
    31     6    11    1
    32     7     9    1
    33     7     8    1
    34     8    13    1
    35     9    10    1
    36     9    12    1
    37    10     5    1
    38    10    11    1
    39    12    14    1
    40     5     4    1
    41     4     1    1
    42     1     2    1
    43     1    24    1
    44     1     3    2
    45    24    25    1
    46    28    25    1
    47    25    26    1
    48    25    27    2
@<TRIPOS>MOLECULE
UD2
 46 48 0 0 0
SMALL
GASTEIGER

@<TRIPOS>ATOM
      1 P          21.0953   71.1216   -3.2981 P.3     1  UNL1        0.2189
      2 O          22.1142   71.0122   -2.0567 O.3     1  UNL1       -0.4371
      3 O          21.0666   69.8352   -4.0284 O.2     1  UNL1       -0.5170
      4 O          19.6189   71.4618   -2.7520 O.3     1  UNL1       -0.3112
      5 C          18.6620   70.4543   -2.4194 C.3     1  UNL1        0.1811
      6 C          17.0226   70.4474   -5.6208 C.3     1  UNL1        0.2383
      7 C          16.8907   68.9893   -5.1124 C.3     1  UNL1        0.1895
      8 O          15.6906   68.3858   -5.5994 O.3     1  UNL1       -0.3779
      9 C          16.8275   69.1844   -3.5776 C.3     1  UNL1        0.1713
     10 C          17.4516   70.5742   -3.3488 C.3     1  UNL1        0.1764
     11 O          17.8670   71.0731   -4.6302 O.3     1  UNL1       -0.3308
     12 O          15.4718   69.1642   -3.1276 O.3     1  UNL1       -0.3794
     13 H          15.5633   67.4726   -5.3089 H       1  UNL1        0.2106
     14 H          15.0117   68.3318   -3.3003 H       1  UNL1        0.2105
     15 N          17.6619   70.4785   -6.9381 N.ar    1  UNL1       -0.2551
     16 C          16.9020   70.4780   -8.0478 C.ar    1  UNL1        0.3323
     17 N          17.4627   70.5060   -9.2714 N.ar    1  UNL1       -0.2743
     18 C          18.8045   70.5371   -9.4026 C.ar    1  UNL1        0.2626
     19 C          19.6164   70.5391   -8.2430 C.ar    1  UNL1        0.0795
     20 C          19.0274   70.5149   -7.0289 C.ar    1  UNL1        0.0869
     21 O          15.6909   70.4503   -7.9446 O.2     1  UNL1       -0.2464
     22 O          19.3131   70.5629  -10.5095 O.2     1  UNL1       -0.2670
     23 H          16.9001   70.5039  -10.0611 H       1  UNL1        0.1734
     24 O          21.5824   72.2921   -4.2911 O.3     1  UNL1       -0.2703
     25 P          23.0142   72.9459   -4.6309 P.3     1  UNL1        0.2208
     26 O          24.1816   72.0498   -3.9768 O.3     1  UNL1       -0.4371
     27 O          23.1970   72.9986   -6.0979 O.2     1  UNL1       -0.5170
     28 O          23.0799   74.4372   -4.0274 O.3     1  UNL1       -0.2865
     29 C          22.2582   75.5056   -4.5013 C.3     1  UNL1        0.2611
     30 C          20.8006   75.0422   -4.5600 C.3     1  UNL1        0.1582
     31 C          20.6812   73.8860   -5.5577 C.3     1  UNL1        0.1625
     32 C          21.1988   74.3481   -6.9226 C.3     1  UNL1        0.1686
     33 C          22.6415   74.8383   -6.7727 C.3     1  UNL1        0.1760
     34 O          19.3111   73.4954   -5.6737 O.3     1  UNL1       -0.3801
     35 O          20.3799   75.4133   -7.4083 O.3     1  UNL1       -0.3794
     36 O          22.6871   75.8921   -5.8086 O.3     1  UNL1       -0.3263
     37 H          19.1616   72.7654   -6.2901 H       1  UNL1        0.2105
     38 H          20.6511   75.7568   -8.2711 H       1  UNL1        0.2105
     39 C          19.1662   74.9383   -2.7557 C.2     1  UNL1        0.2231
     40 C          18.7302   74.4728   -1.3912 C.3     1  UNL1        0.0946
     41 N          20.3773   74.5893   -3.2326 N.am    1  UNL1       -0.2994
     42 O          18.4268   75.6280   -3.4264 O.2     1  UNL1       -0.2751
     43 H          20.9691   74.0387   -2.6963 H       1  UNL1        0.1496
     44 C          23.1460   75.3575   -8.1205 C.3     1  UNL1        0.1693
     45 O          24.1502   74.4753   -8.6259 O.3     1  UNL1       -0.3794
     46 H          24.5163   74.7431   -9.4799 H       1  UNL1        0.2105
@<TRIPOS>BOND
     1    29    30    1
     2    30    41    1
     3    30    31    1
     4    31    34    1
     5    31    32    1
     6    32    35    1
     7    32    33    1
     8    33    36    1
     9    33    44    1
    10    39    40    1
    11    39    42    2
    12    39    41   am
    13    41    43    1
    14    29    28    1
    15    34    37    1
    16    35    38    1
    17    29    36    1
    18    44    45    1
    19    45    46    1
    20    15     6    1
    21    15    16   ar
    22    16    21    2
    23    16    17   ar
    24    17    23    1
    25    17    18   ar
    26    18    19   ar
    27    19    20   ar
    28    15    20   ar
    29    18    22    2
    30     6     7    1
    31     6    11    1
    32     7     9    1
    33     7     8    1
    34     8    13    1
    35     9    10    1
    36     9    12    1
    37    10     5    1
    38    10    11    1
    39    12    14    1
    40     5     4    1
    41     4     1    1
    42     1     2    1
    43     1    24    1
    44     1     3    2
    45    24    25    1
    46    28    25    1
    47    25    26    1
    48    25    27    2
@<TRIPOS>MOLECULE
UD2
 46 48 0 0 0
SMALL
GASTEIGER

@<TRIPOS>ATOM
      1 P          20.5330   70.9281   -3.0584 P.3     1  UNL1        0.2189
      2 O          20.4660   69.5906   -3.9516 O.3     1  UNL1       -0.4371
      3 O          21.6659   71.7664   -3.5085 O.2     1  UNL1       -0.5170
      4 O          19.1584   71.7513   -3.2211 O.3     1  UNL1       -0.3112
      5 C          17.9600   71.4084   -2.5227 C.3     1  UNL1        0.1811
      6 C          16.6924   70.5816   -5.7855 C.3     1  UNL1        0.2383
      7 C          16.8828   69.2132   -5.0831 C.3     1  UNL1        0.1895
      8 O          15.9258   68.2615   -5.5523 O.3     1  UNL1       -0.3779
      9 C          16.6245   69.5706   -3.5989 C.3     1  UNL1        0.1713
     10 C          16.8540   71.0926   -3.5327 C.3     1  UNL1        0.1764
     11 O          17.2525   71.5226   -4.8441 O.3     1  UNL1       -0.3308
     12 O          15.2805   69.2508   -3.2354 O.3     1  UNL1       -0.3794
     13 H          16.0048   67.3893   -5.1428 H       1  UNL1        0.2106
     14 H          15.0633   68.3122   -3.3155 H       1  UNL1        0.2105
     15 N          17.4276   70.6182   -7.0517 N.ar    1  UNL1       -0.2551
     16 C          16.7534   70.5848   -8.2149 C.ar    1  UNL1        0.3323
     17 N          17.4033   70.6170   -9.3934 N.ar    1  UNL1       -0.2743
     18 C          18.7497   70.6856   -9.4244 C.ar    1  UNL1        0.2626
     19 C          19.4720   70.7225   -8.2074 C.ar    1  UNL1        0.0795
     20 C          18.7945   70.6932   -7.0406 C.ar    1  UNL1        0.0869
     21 O          15.5392   70.5231   -8.2022 O.2     1  UNL1       -0.2464
     22 O          19.3391   70.7152  -10.4904 O.2     1  UNL1       -0.2670
     23 H          16.9019   70.5909  -10.2229 H       1  UNL1        0.1734
     24 O          20.7401   70.5311   -1.5115 O.3     1  UNL1       -0.2703
     25 P          21.5206   71.2106   -0.2778 P.3     1  UNL1        0.2208
     26 O          21.4238   70.2508    1.0119 O.3     1  UNL1       -0.4371
     27 O          22.9413   71.4067   -0.6404 O.2     1  UNL1       -0.5170
     28 O          20.8512   72.6352    0.0613 O.3     1  UNL1       -0.2865
     29 C          21.6097   73.7725    0.4767 C.3     1  UNL1        0.2611
     30 C          23.1025   73.4825    0.3034 C.3     1  UNL1        0.1582
     31 C          23.4937   72.3079    1.2055 C.3     1  UNL1        0.1625
     32 C          23.1328   72.6483    2.6540 C.3     1  UNL1        0.1686
     33 C          21.6384   72.9706    2.7367 C.3     1  UNL1        0.1760
     34 O          24.9008   72.0773    1.1054 O.3     1  UNL1       -0.3801
     35 O          23.8907   73.7816    3.0813 O.3     1  UNL1       -0.3794
     36 O          21.3360   74.0508    1.8515 O.3     1  UNL1       -0.3263
     37 H          25.2188   71.3450    1.6513 H       1  UNL1        0.2105
     38 H          23.7119   74.0545    3.9922 H       1  UNL1        0.2105
     39 C          23.9667   74.0364   -1.9066 C.2     1  UNL1        0.2231
     40 C          24.2475   73.6833   -3.3436 C.3     1  UNL1        0.0946
     41 N          23.3751   73.1383   -1.0943 N.am    1  UNL1       -0.2994
     42 O          24.2730   75.1299   -1.4794 O.2     1  UNL1       -0.2751
     43 H          23.1291   72.2643   -1.4357 H       1  UNL1        0.1496
     44 C          21.2815   73.3699    4.1698 C.3     1  UNL1        0.1693
     45 O          22.1395   72.6839    5.0839 O.3     1  UNL1       -0.3794
     46 H          21.9697   72.8895    6.0133 H       1  UNL1        0.2105
@<TRIPOS>BOND
     1    29    30    1
     2    30    41    1
     3    30    31    1
     4    31    34    1
     5    31    32    1
     6    32    35    1
     7    32    33    1
     8    33    36    1
     9    33    44    1
    10    39    40    1
    11    39    42    2
    12    39    41   am
    13    41    43    1
    14    29    28    1
    15    34    37    1
    16    35    38    1
    17    29    36    1
    18    44    45    1
    19    45    46    1
    20    15     6    1
    21    15    16   ar
    22    16    21    2
    23    16    17   ar
    24    17    23    1
    25    17    18   ar
    26    18    19   ar
    27    19    20   ar
    28    15    20   ar
    29    18    22    2
    30     6     7    1
    31     6    11    1
    32     7     9    1
    33     7     8    1
    34     8    13    1
    35     9    10    1
    36     9    12    1
    37    10     5    1
    38    10    11    1
    39    12    14    1
    40     5     4    1
    41     4     1    1
    42     1     2    1
    43     1    24    1
    44     1     3    2
    45    24    25    1
    46    28    25    1
    47    25    26    1
    48    25    27    2
@<TRIPOS>MOLECULE
UD2
 46 48 0 0 0
SMALL
GASTEIGER

@<TRIPOS>ATOM
      1 P          16.4795   69.4849   -2.8970 P.3     1  UNL1        0.2189
      2 O          17.4026   68.3997   -2.1475 O.3     1  UNL1       -0.4371
      3 O          16.1025   68.9739   -4.2333 O.2     1  UNL1       -0.5170
      4 O          15.1493   69.7492   -2.0284 O.3     1  UNL1       -0.3112
      5 C          15.0684   69.4763   -0.6283 C.3     1  UNL1        0.1811
      6 C          12.7267   67.7711    1.5036 C.3     1  UNL1        0.2383
      7 C          12.2856   69.2561    1.5495 C.3     1  UNL1        0.1895
      8 O          10.8735   69.3631    1.7402 O.3     1  UNL1       -0.3779
      9 C          12.6928   69.7600    0.1431 C.3     1  UNL1        0.1713
     10 C          13.7562   68.7486   -0.3258 C.3     1  UNL1        0.1764
     11 O          13.9534   67.8089    0.7425 O.3     1  UNL1       -0.3308
     12 O          11.5673   69.7471   -0.7366 O.3     1  UNL1       -0.3794
     13 H          10.5491   70.2731    1.7762 H       1  UNL1        0.2106
     14 H          10.8422   70.3222   -0.4573 H       1  UNL1        0.2105
     15 N          12.9732   67.2643    2.8554 N.ar    1  UNL1       -0.2551
     16 C          12.9228   65.9410    3.0905 C.ar    1  UNL1        0.3323
     17 N          13.1450   65.4473    4.3231 N.ar    1  UNL1       -0.2743
     18 C          13.4252   66.2790    5.3469 C.ar    1  UNL1        0.2626
     19 C          13.4824   67.6742    5.1136 C.ar    1  UNL1        0.0795
     20 C          13.2596   68.1410    3.8670 C.ar    1  UNL1        0.0869
     21 O          12.6715   65.1793    2.1767 O.2     1  UNL1       -0.2464
     22 O          13.6269   65.8335    6.4629 O.2     1  UNL1       -0.2670
     23 H          13.1036   64.4907    4.4754 H       1  UNL1        0.1734
     24 O          17.2960   70.8634   -3.0599 O.3     1  UNL1       -0.2703
     25 P          18.7323   71.3792   -2.5464 P.3     1  UNL1        0.2208
     26 O          18.5301   72.6442   -1.5703 O.3     1  UNL1       -0.4371
     27 O          19.4127   70.2920   -1.8093 O.2     1  UNL1       -0.5170
     28 O          19.6295   71.8144   -3.8106 O.3     1  UNL1       -0.2865
     29 C          20.6261   70.9677   -4.3863 C.3     1  UNL1        0.2611
     30 C          22.0048   71.6088   -4.2111 C.3     1  UNL1        0.1582
     31 C          22.0373   72.9430   -4.9629 C.3     1  UNL1        0.1625
     32 C          21.6948   72.6958   -6.4347 C.3     1  UNL1        0.1686
     33 C          20.3276   72.0127   -6.5241 C.3     1  UNL1        0.1760
     34 O          23.3442   73.5137   -4.8660 O.3     1  UNL1       -0.3801
     35 O          22.6891   71.8542   -7.0216 O.3     1  UNL1       -0.3794
     36 O          20.3562   70.7938   -5.7789 O.3     1  UNL1       -0.3263
     37 H          23.4370   74.3625   -5.3200 H       1  UNL1        0.2105
     38 H          22.5351   71.6548   -7.9557 H       1  UNL1        0.2105
     39 C          23.3921   71.3855   -2.2203 C.2     1  UNL1        0.2231
     40 C          23.6536   71.6259   -0.7566 C.3     1  UNL1        0.0946
     41 N          22.2583   71.8428   -2.7872 N.am    1  UNL1       -0.2994
     42 O          24.2026   70.7797   -2.8899 O.2     1  UNL1       -0.2751
     43 H          21.6096   72.3263   -2.2520 H       1  UNL1        0.1496
     44 C          20.0047   71.7083   -7.9882 C.3     1  UNL1        0.1693
     45 O          19.0032   70.6909   -8.0543 O.3     1  UNL1       -0.3794
     46 H          18.7487   70.4466   -8.9546 H       1  UNL1        0.2105
@<TRIPOS>BOND
     1    29    30    1
     2    30    41    1
     3    30    31    1
     4    31    34    1
     5    31    32    1
     6    32    35    1
     7    32    33    1
     8    33    36    1
     9    33    44    1
    10    39    40    1
    11    39    42    2
    12    39    41   am
    13    41    43    1
    14    29    28    1
    15    34    37    1
    16    35    38    1
    17    29    36    1
    18    44    45    1
    19    45    46    1
    20    15     6    1
    21    15    16   ar
    22    16    21    2
    23    16    17   ar
    24    17    23    1
    25    17    18   ar
    26    18    19   ar
    27    19    20   ar
    28    15    20   ar
    29    18    22    2
    30     6     7    1
    31     6    11    1
    32     7     9    1
    33     7     8    1
    34     8    13    1
    35     9    10    1
    36     9    12    1
    37    10     5    1
    38    10    11    1
    39    12    14    1
    40     5     4    1
    41     4     1    1
    42     1     2    1
    43     1    24    1
    44     1     3    2
    45    24    25    1
    46    28    25    1
    47    25    26    1
    48    25    27    2
@<TRIPOS>MOLECULE
UD2
 46 48 0 0 0
SMALL
GASTEIGER

@<TRIPOS>ATOM
      1 P          23.3058   72.0949   -3.3577 P.3     1  UNL1        0.2189
      2 O          24.2616   70.8462   -3.0132 O.3     1  UNL1       -0.4371
      3 O          23.8857   72.8662   -4.4791 O.2     1  UNL1       -0.5170
      4 O          21.8472   71.5548   -3.7752 O.3     1  UNL1       -0.3112
      5 C          20.9772   70.8820   -2.8631 C.3     1  UNL1        0.1811
      6 C          18.1922   70.8620   -5.1391 C.3     1  UNL1        0.2383
      7 C          18.0806   69.5183   -4.3749 C.3     1  UNL1        0.1895
      8 O          16.7159   69.1128   -4.2527 O.3     1  UNL1       -0.3779
      9 C          18.6751   69.8803   -2.9918 C.3     1  UNL1        0.1713
     10 C          19.5222   71.1381   -3.2637 C.3     1  UNL1        0.1764
     11 O          19.4437   71.4107   -4.6719 O.3     1  UNL1       -0.3308
     12 O          17.6314   70.1712   -2.0608 O.3     1  UNL1       -0.3794
     13 H          16.5942   68.2770   -3.7823 H       1  UNL1        0.2106
     14 H          17.0316   69.4310   -1.8972 H       1  UNL1        0.2105
     15 N          18.2373   70.6311   -6.5847 N.ar    1  UNL1       -0.2551
     16 C          17.0999   70.6690   -7.3014 C.ar    1  UNL1        0.3323
     17 N          17.1118   70.4602   -8.6313 N.ar    1  UNL1       -0.2743
     18 C          18.2735   70.2100   -9.2687 C.ar    1  UNL1        0.2626
     19 C          19.4785   70.1682   -8.5267 C.ar    1  UNL1        0.0795
     20 C          19.4376   70.3853   -7.1953 C.ar    1  UNL1        0.0869
     21 O          16.0451   70.8937   -6.7399 O.2     1  UNL1       -0.2464
     22 O          18.2856   70.0213  -10.4723 O.2     1  UNL1       -0.2670
     23 H          16.2824   70.4899   -9.1327 H       1  UNL1        0.1734
     24 O          23.1755   73.0444   -2.0635 O.3     1  UNL1       -0.2703
     25 P          23.7699   74.4890   -1.6725 P.3     1  UNL1        0.2208
     26 O          24.8798   74.9232   -2.7558 O.3     1  UNL1       -0.4371
     27 O          22.6769   75.4857   -1.6605 O.2     1  UNL1       -0.5170
     28 O          24.4449   74.4142   -0.2125 O.3     1  UNL1       -0.2865
     29 C          23.7112   74.6217    0.9958 C.3     1  UNL1        0.2611
     30 C          24.6059   74.3079    2.1973 C.3     1  UNL1        0.1582
     31 C          25.0131   72.8320    2.1481 C.3     1  UNL1        0.1625
     32 C          23.7508   71.9658    2.1223 C.3     1  UNL1        0.1686
     33 C          22.8889   72.3700    0.9233 C.3     1  UNL1        0.1760
     34 O          25.7884   72.5120    3.3056 O.3     1  UNL1       -0.3801
     35 O          23.0123   72.1617    3.3296 O.3     1  UNL1       -0.3794
     36 O          22.5711   73.7602    1.0142 O.3     1  UNL1       -0.3263
     37 H          26.0816   71.5911    3.3398 H       1  UNL1        0.2105
     38 H          22.1974   71.6430    3.3816 H       1  UNL1        0.2105
     39 C          26.0211   76.0714    3.1055 C.2     1  UNL1        0.2231
     40 C          27.2535   76.9359    3.0552 C.3     1  UNL1        0.0946
     41 N          25.8047   75.1486    2.1476 N.am    1  UNL1       -0.2994
     42 O          25.2223   76.2056    4.0089 O.2     1  UNL1       -0.2751
     43 H          26.4426   75.0416    1.4246 H       1  UNL1        0.1496
     44 C          21.5973   71.5501    0.9244 C.3     1  UNL1        0.1693
     45 O          21.8891   70.2008    1.2940 O.3     1  UNL1       -0.3794
     46 H          21.1147   69.6221    1.3156 H       1  UNL1        0.2105
@<TRIPOS>BOND
     1    29    30    1
     2    30    41    1
     3    30    31    1
     4    31    34    1
     5    31    32    1
     6    32    35    1
     7    32    33    1
     8    33    36    1
     9    33    44    1
    10    39    40    1
    11    39    42    2
    12    39    41   am
    13    41    43    1
    14    29    28    1
    15    34    37    1
    16    35    38    1
    17    29    36    1
    18    44    45    1
    19    45    46    1
    20    15     6    1
    21    15    16   ar
    22    16    21    2
    23    16    17   ar
    24    17    23    1
    25    17    18   ar
    26    18    19   ar
    27    19    20   ar
    28    15    20   ar
    29    18    22    2
    30     6     7    1
    31     6    11    1
    32     7     9    1
    33     7     8    1
    34     8    13    1
    35     9    10    1
    36     9    12    1
    37    10     5    1
    38    10    11    1
    39    12    14    1
    40     5     4    1
    41     4     1    1
    42     1     2    1
    43     1    24    1
    44     1     3    2
    45    24    25    1
    46    28    25    1
    47    25    26    1
    48    25    27    2
@<TRIPOS>MOLECULE
UD2
 46 48 0 0 0
SMALL
GASTEIGER

@<TRIPOS>ATOM
      1 P          22.8768   71.9243   -0.3714 P.3     1  UNL1        0.2189
      2 O          24.2285   71.1190   -0.0310 O.3     1  UNL1       -0.4371
      3 O          21.7136   71.0224   -0.2222 O.2     1  UNL1       -0.5170
      4 O          22.7245   73.1685    0.6398 O.3     1  UNL1       -0.3112
      5 C          23.7160   73.5061    1.6115 C.3     1  UNL1        0.1811
      6 C          23.1662   73.7896    5.1547 C.3     1  UNL1        0.2383
      7 C          21.8092   74.1821    4.5171 C.3     1  UNL1        0.1895
      8 O          20.7217   73.8270    5.3733 O.3     1  UNL1       -0.3779
      9 C          21.7973   73.3278    3.2258 C.3     1  UNL1        0.1713
     10 C          23.2808   72.9889    2.9848 C.3     1  UNL1        0.1764
     11 O          24.0411   73.6393    4.0155 O.3     1  UNL1       -0.3308
     12 O          21.0371   72.1347    3.4240 O.3     1  UNL1       -0.3794
     13 H          19.8513   74.0530    5.0183 H       1  UNL1        0.2106
     14 H          20.1073   72.2907    3.6377 H       1  UNL1        0.2105
     15 N          23.6477   74.8535    6.0386 N.ar    1  UNL1       -0.2551
     16 C          23.3552   74.8131    7.3507 C.ar    1  UNL1        0.3323
     17 N          23.7844   75.7774    8.1863 N.ar    1  UNL1       -0.2743
     18 C          24.5210   76.8045    7.7160 C.ar    1  UNL1        0.2626
     19 C          24.8372   76.8590    6.3372 C.ar    1  UNL1        0.0795
     20 C          24.3973   75.8765    5.5233 C.ar    1  UNL1        0.0869
     21 O          22.6920   73.8928    7.7886 O.2     1  UNL1       -0.2464
     22 O          24.9104   77.6777    8.4713 O.2     1  UNL1       -0.2670
     23 H          23.5634   75.7335    9.1293 H       1  UNL1        0.1734
     24 O          22.9432   72.4692   -1.8853 O.3     1  UNL1       -0.2703
     25 P          23.4506   71.8406   -3.2784 P.3     1  UNL1        0.2208
     26 O          24.3812   72.9105   -4.0419 O.3     1  UNL1       -0.4371
     27 O          24.2299   70.6120   -3.0108 O.2     1  UNL1       -0.5170
     28 O          22.1796   71.4807   -4.1991 O.3     1  UNL1       -0.2865
     29 C          21.1131   72.3985   -4.4470 C.3     1  UNL1        0.2611
     30 C          19.8690   71.6276   -4.8952 C.3     1  UNL1        0.1582
     31 C          20.1741   70.9029   -6.2098 C.3     1  UNL1        0.1625
     32 C          20.6284   71.9284   -7.2521 C.3     1  UNL1        0.1686
     33 C          21.8435   72.6878   -6.7129 C.3     1  UNL1        0.1760
     34 O          18.9958   70.2400   -6.6739 O.3     1  UNL1       -0.3801
     35 O          19.5663   72.8482   -7.5117 O.3     1  UNL1       -0.3794
     36 O          21.5013   73.3129   -5.4743 O.3     1  UNL1       -0.3263
     37 H          19.1168   69.7588   -7.5040 H       1  UNL1        0.2105
     38 H          19.7848   73.5284   -8.1640 H       1  UNL1        0.2105
     39 C          18.2101   70.4626   -3.5430 C.2     1  UNL1        0.2231
     40 C          17.8346   69.4551   -2.4883 C.3     1  UNL1        0.0946
     41 N          19.5046   70.6475   -3.8690 N.am    1  UNL1       -0.2994
     42 O          17.3470   71.1085   -4.0999 O.2     1  UNL1       -0.2751
     43 H          20.1950   70.1321   -3.4234 H       1  UNL1        0.1496
     44 C          22.2670   73.7554   -7.7235 C.3     1  UNL1        0.1693
     45 O          21.3715   74.8666   -7.6472 O.3     1  UNL1       -0.3794
     46 H          21.5800   75.5834   -8.2617 H       1  UNL1        0.2105
@<TRIPOS>BOND
     1    29    30    1
     2    30    41    1
     3    30    31    1
     4    31    34    1
     5    31    32    1
     6    32    35    1
     7    32    33    1
     8    33    36    1
     9    33    44    1
    10    39    40    1
    11    39    42    2
    12    39    41   am
    13    41    43    1
    14    29    28    1
    15    34    37    1
    16    35    38    1
    17    29    36    1
    18    44    45    1
    19    45    46    1
    20    15     6    1
    21    15    16   ar
    22    16    21    2
    23    16    17   ar
    24    17    23    1
    25    17    18   ar
    26    18    19   ar
    27    19    20   ar
    28    15    20   ar
    29    18    22    2
    30     6     7    1
    31     6    11    1
    32     7     9    1
    33     7     8    1
    34     8    13    1
    35     9    10    1
    36     9    12    1
    37    10     5    1
    38    10    11    1
    39    12    14    1
    40     5     4    1
    41     4     1    1
    42     1     2    1
    43     1    24    1
    44     1     3    2
    45    24    25    1
    46    28    25    1
    47    25    26    1
    48    25    27    2
@<TRIPOS>MOLECULE
UD2
 46 48 0 0 0
SMALL
GASTEIGER

@<TRIPOS>ATOM
      1 P          23.1764   73.5557   -4.1272 P.3     1  UNL1        0.2189
      2 O          23.4313   74.4587   -5.4352 O.3     1  UNL1       -0.4371
      3 O          24.1888   72.4786   -4.0656 O.2     1  UNL1       -0.5170
      4 O          23.2900   74.4752   -2.8099 O.3     1  UNL1       -0.3112
      5 C          22.4854   74.2702   -1.6472 C.3     1  UNL1        0.1811
      6 C          22.9873   72.2957    1.3169 C.3     1  UNL1        0.2383
      7 C          21.6956   71.7221    0.6807 C.3     1  UNL1        0.1895
      8 O          21.5619   70.3284    0.9661 O.3     1  UNL1       -0.3779
      9 C          21.9457   71.9551   -0.8295 C.3     1  UNL1        0.1713
     10 C          23.0146   73.0640   -0.8674 C.3     1  UNL1        0.1764
     11 O          23.2875   73.4419    0.4913 O.3     1  UNL1       -0.3308
     12 O          22.4390   70.7632   -1.4432 O.3     1  UNL1       -0.3794
     13 H          20.7685   69.9240    0.5897 H       1  UNL1        0.2106
     14 H          21.8295   70.0143   -1.3960 H       1  UNL1        0.2105
     15 N          22.7419   72.7064    2.7012 N.ar    1  UNL1       -0.2551
     16 C          21.4876   72.6983    3.1863 C.ar    1  UNL1        0.3323
     17 N          21.2329   73.0710    4.4546 N.ar    1  UNL1       -0.2743
     18 C          22.2400   73.4588    5.2633 C.ar    1  UNL1        0.2626
     19 C          23.5654   73.4711    4.7660 C.ar    1  UNL1        0.0795
     20 C          23.7922   73.0884    3.4918 C.ar    1  UNL1        0.0869
     21 O          20.5698   72.3508    2.4685 O.2     1  UNL1       -0.2464
     22 O          22.0109   73.7959    6.4115 O.2     1  UNL1       -0.2670
     23 H          20.3225   73.0605    4.7881 H       1  UNL1        0.1734
     24 O          21.7048   72.9059   -4.2018 O.3     1  UNL1       -0.2703
     25 P          20.7326   72.4760   -5.4114 P.3     1  UNL1        0.2208
     26 O          20.2858   73.7877   -6.2321 O.3     1  UNL1       -0.4371
     27 O          21.4492   71.5497   -6.3152 O.2     1  UNL1       -0.5170
     28 O          19.4276   71.7441   -4.8167 O.3     1  UNL1       -0.2865
     29 C          19.1452   70.3602   -5.0320 C.3     1  UNL1        0.2611
     30 C          18.1421   70.2155   -6.1790 C.3     1  UNL1        0.1582
     31 C          16.8301   70.9026   -5.7882 C.3     1  UNL1        0.1625
     32 C          16.3133   70.2884   -4.4843 C.3     1  UNL1        0.1686
     33 C          17.3871   70.4304   -3.4023 C.3     1  UNL1        0.1760
     34 O          15.8633   70.7093   -6.8232 O.3     1  UNL1       -0.3801
     35 O          16.0223   68.9049   -4.6905 O.3     1  UNL1       -0.3794
     36 O          18.5903   69.7969   -3.8415 O.3     1  UNL1       -0.3263
     37 H          15.0066   71.1196   -6.6423 H       1  UNL1        0.2105
     38 H          15.6901   68.4506   -3.9035 H       1  UNL1        0.2105
     39 C          18.5620   70.2323   -8.5793 C.2     1  UNL1        0.2231
     40 C          19.1188   70.8794   -9.8201 C.3     1  UNL1        0.0946
     41 N          18.6843   70.8456   -7.3855 N.am    1  UNL1       -0.2994
     42 O          18.0028   69.1581   -8.6540 O.2     1  UNL1       -0.2751
     43 H          19.1322   71.7039   -7.3252 H       1  UNL1        0.1496
     44 C          16.9021   69.7660   -2.1124 C.3     1  UNL1        0.1693
     45 O          17.2179   68.3726   -2.1456 O.3     1  UNL1       -0.3794
     46 H          16.9387   67.8866   -1.3576 H       1  UNL1        0.2105
@<TRIPOS>BOND
     1    29    30    1
     2    30    41    1
     3    30    31    1
     4    31    34    1
     5    31    32    1
     6    32    35    1
     7    32    33    1
     8    33    36    1
     9    33    44    1
    10    39    40    1
    11    39    42    2
    12    39    41   am
    13    41    43    1
    14    29    28    1
    15    34    37    1
    16    35    38    1
    17    29    36    1
    18    44    45    1
    19    45    46    1
    20    15     6    1
    21    15    16   ar
    22    16    21    2
    23    16    17   ar
    24    17    23    1
    25    17    18   ar
    26    18    19   ar
    27    19    20   ar
    28    15    20   ar
    29    18    22    2
    30     6     7    1
    31     6    11    1
    32     7     9    1
    33     7     8    1
    34     8    13    1
    35     9    10    1
    36     9    12    1
    37    10     5    1
    38    10    11    1
    39    12    14    1
    40     5     4    1
    41     4     1    1
    42     1     2    1
    43     1    24    1
    44     1     3    2
    45    24    25    1
    46    28    25    1
    47    25    26    1
    48    25    27    2
@<TRIPOS>MOLECULE
UD2
 46 48 0 0 0
SMALL
GASTEIGER

@<TRIPOS>ATOM
      1 P          19.4400   73.6886   -1.2365 P.3     1  UNL1        0.2189
      2 O          18.2383   73.7080   -0.1656 O.3     1  UNL1       -0.4371
      3 O          19.6348   75.0487   -1.7851 O.2     1  UNL1       -0.5170
      4 O          20.7946   73.2021   -0.5139 O.3     1  UNL1       -0.3112
      5 C          20.8101   72.5890    0.7765 C.3     1  UNL1        0.1811
      6 C          23.7463   73.6802    2.5441 C.3     1  UNL1        0.2383
      7 C          23.7064   74.5642    1.2717 C.3     1  UNL1        0.1895
      8 O          24.2793   75.8485    1.5246 O.3     1  UNL1       -0.3779
      9 C          22.1858   74.6806    1.0040 C.3     1  UNL1        0.1713
     10 C          21.5783   73.4806    1.7552 C.3     1  UNL1        0.1764
     11 O          22.6663   72.7443    2.3364 O.3     1  UNL1       -0.3308
     12 O          21.6794   75.9087    1.5295 O.3     1  UNL1       -0.3794
     13 H          24.2781   76.4379    0.7583 H       1  UNL1        0.2106
     14 H          22.0715   76.6984    1.1332 H       1  UNL1        0.2105
     15 N          25.0271   72.9769    2.6436 N.ar    1  UNL1       -0.2551
     16 C          25.1582   71.7517    2.1045 C.ar    1  UNL1        0.3323
     17 N          26.3235   71.0821    2.1812 N.ar    1  UNL1       -0.2743
     18 C          27.3846   71.6355    2.8029 C.ar    1  UNL1        0.2626
     19 C          27.2609   72.9249    3.3740 C.ar    1  UNL1        0.0795
     20 C          26.0821   73.5751    3.2786 C.ar    1  UNL1        0.0869
     21 O          24.2098   71.2407    1.5407 O.2     1  UNL1       -0.2464
     22 O          28.4400   71.0306    2.8726 O.2     1  UNL1       -0.2670
     23 H          26.4005   70.1992    1.7880 H       1  UNL1        0.1734
     24 O          19.0766   72.6739   -2.4330 O.3     1  UNL1       -0.2703
     25 P          19.6051   71.2140   -2.8599 P.3     1  UNL1        0.2208
     26 O          21.1907   71.2771   -3.1350 O.3     1  UNL1       -0.4371
     27 O          19.3321   70.2519   -1.7699 O.2     1  UNL1       -0.5170
     28 O          18.8463   70.7388   -4.1983 O.3     1  UNL1       -0.2865
     29 C          18.1687   71.6437   -5.0719 C.3     1  UNL1        0.2611
     30 C          16.7763   71.0964   -5.3949 C.3     1  UNL1        0.1582
     31 C          16.9202   69.7602   -6.1299 C.3     1  UNL1        0.1625
     32 C          17.7674   69.9705   -7.3879 C.3     1  UNL1        0.1686
     33 C          19.1220   70.5613   -6.9879 C.3     1  UNL1        0.1760
     34 O          15.6267   69.2776   -6.5004 O.3     1  UNL1       -0.3801
     35 O          17.0955   70.8701   -8.2714 O.3     1  UNL1       -0.3794
     36 O          18.9157   71.7864   -6.2818 O.3     1  UNL1       -0.3263
     37 H          15.6424   68.4325   -6.9702 H       1  UNL1        0.2105
     38 H          17.5767   71.0501   -9.0911 H       1  UNL1        0.2105
     39 C          16.1042   69.7122   -3.5054 C.2     1  UNL1        0.2231
     40 C          15.3374   69.5023   -2.2262 C.3     1  UNL1        0.0946
     41 N          16.0298   70.8929   -4.1507 N.am    1  UNL1       -0.2994
     42 O          16.7896   68.8179   -3.9557 O.2     1  UNL1       -0.2751
     43 H          15.4813   71.6078   -3.7916 H       1  UNL1        0.1496
     44 C          19.9519   70.8301   -8.2447 C.3     1  UNL1        0.1693
     45 O          21.3011   71.1195   -7.8726 O.3     1  UNL1       -0.3794
     46 H          21.8859   71.3006   -8.6210 H       1  UNL1        0.2105
@<TRIPOS>BOND
     1    29    30    1
     2    30    41    1
     3    30    31    1
     4    31    34    1
     5    31    32    1
     6    32    35    1
     7    32    33    1
     8    33    36    1
     9    33    44    1
    10    39    40    1
    11    39    42    2
    12    39    41   am
    13    41    43    1
    14    29    28    1
    15    34    37    1
    16    35    38    1
    17    29    36    1
    18    44    45    1
    19    45    46    1
    20    15     6    1
    21    15    16   ar
    22    16    21    2
    23    16    17   ar
    24    17    23    1
    25    17    18   ar
    26    18    19   ar
    27    19    20   ar
    28    15    20   ar
    29    18    22    2
    30     6     7    1
    31     6    11    1
    32     7     9    1
    33     7     8    1
    34     8    13    1
    35     9    10    1
    36     9    12    1
    37    10     5    1
    38    10    11    1
    39    12    14    1
    40     5     4    1
    41     4     1    1
    42     1     2    1
    43     1    24    1
    44     1     3    2
    45    24    25    1
    46    28    25    1
    47    25    26    1
    48    25    27    2
@<TRIPOS>MOLECULE
UD2
 46 48 0 0 0
SMALL
GASTEIGER

@<TRIPOS>ATOM
      1 P          16.3038   72.5095   -2.5617 P.3     1  UNL1        0.2189
      2 O          15.5706   73.9104   -2.8636 O.3     1  UNL1       -0.4371
      3 O          17.1278   72.6365   -1.3395 O.2     1  UNL1       -0.5170
      4 O          15.1966   71.3601   -2.3456 O.3     1  UNL1       -0.3112
      5 C          15.1145   70.5741   -1.1553 C.3     1  UNL1        0.1811
      6 C          12.7531   68.2097    0.1753 C.3     1  UNL1        0.2383
      7 C          12.1328   69.5960    0.4843 C.3     1  UNL1        0.1895
      8 O          10.7055   69.5277    0.4836 O.3     1  UNL1       -0.3779
      9 C          12.6454   70.4529   -0.6991 C.3     1  UNL1        0.1713
     10 C          13.8731   69.6809   -1.2189 C.3     1  UNL1        0.1764
     11 O          14.0503   68.5365   -0.3689 O.3     1  UNL1       -0.3308
     12 O          11.6463   70.5477   -1.7159 O.3     1  UNL1       -0.3794
     13 H          10.2711   70.3704    0.6726 H       1  UNL1        0.2106
     14 H          10.8281   70.9729   -1.4259 H       1  UNL1        0.2105
     15 N          12.8915   67.4215    1.4019 N.ar    1  UNL1       -0.2551
     16 C          12.3488   66.1928    1.4693 C.ar    1  UNL1        0.3323
     17 N          12.4602   65.4464    2.5840 N.ar    1  UNL1       -0.2743
     18 C          13.1244   65.9231    3.6564 C.ar    1  UNL1        0.2626
     19 C          13.7016   67.2145    3.5990 C.ar    1  UNL1        0.0795
     20 C          13.5780   67.9392    2.4672 C.ar    1  UNL1        0.0869
     21 O          11.7472   65.7501    0.5098 O.2     1  UNL1       -0.2464
     22 O          13.2264   65.2483    4.6658 O.2     1  UNL1       -0.2670
     23 H          12.0619   64.5630    2.6162 H       1  UNL1        0.1734
     24 O          17.2469   72.1178   -3.8069 O.3     1  UNL1       -0.2703
     25 P          18.1399   70.8281   -4.1706 P.3     1  UNL1        0.2208
     26 O          18.6002   70.0945   -2.8128 O.3     1  UNL1       -0.4371
     27 O          17.3420   69.8907   -4.9909 O.2     1  UNL1       -0.5170
     28 O          19.4410   71.2923   -4.9979 O.3     1  UNL1       -0.2865
     29 C          19.7432   72.6622   -5.2690 C.3     1  UNL1        0.2611
     30 C          20.1503   72.8151   -6.7365 C.3     1  UNL1        0.1582
     31 C          21.4210   71.9989   -6.9926 C.3     1  UNL1        0.1625
     32 C          22.5185   72.4686   -6.0338 C.3     1  UNL1        0.1686
     33 C          22.0200   72.3290   -4.5930 C.3     1  UNL1        0.1760
     34 O          21.8499   72.1945   -8.3421 O.3     1  UNL1       -0.3801
     35 O          22.8324   73.8367   -6.3006 O.3     1  UNL1       -0.3794
     36 O          20.8196   73.0870   -4.4304 O.3     1  UNL1       -0.3263
     37 H          22.6511   71.7053   -8.5745 H       1  UNL1        0.2105
     38 H          23.5216   74.2017   -5.7281 H       1  UNL1        0.2105
     39 C          19.0827   71.0484   -8.0314 C.2     1  UNL1        0.2231
     40 C          17.9736   70.5428   -8.9162 C.3     1  UNL1        0.0946
     41 N          19.0712   72.3242   -7.5973 N.am    1  UNL1       -0.2994
     42 O          19.9874   70.3069   -7.7089 O.2     1  UNL1       -0.2751
     43 H          18.3487   72.9176   -7.8557 H       1  UNL1        0.1496
     44 C          23.0882   72.8522   -3.6310 C.3     1  UNL1        0.1693
     45 O          24.3828   72.6592   -4.2049 O.3     1  UNL1       -0.3794
     46 H          25.1104   72.9686   -3.6483 H       1  UNL1        0.2105
@<TRIPOS>BOND
     1    29    30    1
     2    30    41    1
     3    30    31    1
     4    31    34    1
     5    31    32    1
     6    32    35    1
     7    32    33    1
     8    33    36    1
     9    33    44    1
    10    39    40    1
    11    39    42    2
    12    39    41   am
    13    41    43    1
    14    29    28    1
    15    34    37    1
    16    35    38    1
    17    29    36    1
    18    44    45    1
    19    45    46    1
    20    15     6    1
    21    15    16   ar
    22    16    21    2
    23    16    17   ar
    24    17    23    1
    25    17    18   ar
    26    18    19   ar
    27    19    20   ar
    28    15    20   ar
    29    18    22    2
    30     6     7    1
    31     6    11    1
    32     7     9    1
    33     7     8    1
    34     8    13    1
    35     9    10    1
    36     9    12    1
    37    10     5    1
    38    10    11    1
    39    12    14    1
    40     5     4    1
    41     4     1    1
    42     1     2    1
    43     1    24    1
    44     1     3    2
    45    24    25    1
    46    28    25    1
    47    25    26    1
    48    25    27    2
@<TRIPOS>MOLECULE
UD2
 46 48 0 0 0
SMALL
GASTEIGER

@<TRIPOS>ATOM
      1 P          23.2120   71.8319   -3.1012 P.3     1  UNL1        0.2189
      2 O          23.9401   73.1904   -3.5656 O.3     1  UNL1       -0.4371
      3 O          24.2099   70.7436   -3.0081 O.2     1  UNL1       -0.5170
      4 O          22.5262   72.0560   -1.6613 O.3     1  UNL1       -0.3112
      5 C          21.6510   71.1000   -1.0601 C.3     1  UNL1        0.1811
      6 C          23.1602   71.8822    2.1096 C.3     1  UNL1        0.2383
      7 C          22.5790   73.2299    1.6115 C.3     1  UNL1        0.1895
      8 O          22.1831   74.0521    2.7111 O.3     1  UNL1       -0.3779
      9 C          21.3471   72.7704    0.7937 C.3     1  UNL1        0.1713
     10 C          21.6464   71.2970    0.4578 C.3     1  UNL1        0.1764
     11 O          22.9433   70.9907    0.9943 O.3     1  UNL1       -0.3308
     12 O          20.1593   72.8732    1.5806 O.3     1  UNL1       -0.3794
     13 H          21.8135   74.9066    2.4505 H       1  UNL1        0.2106
     14 H          19.9550   73.7726    1.8701 H       1  UNL1        0.2105
     15 N          24.5906   72.0119    2.3962 N.ar    1  UNL1       -0.2551
     16 C          25.3714   70.9168    2.4006 C.ar    1  UNL1        0.3323
     17 N          26.6891   71.0064    2.6610 N.ar    1  UNL1       -0.2743
     18 C          27.2495   72.2050    2.9214 C.ar    1  UNL1        0.2626
     19 C          26.4397   73.3662    2.9191 C.ar    1  UNL1        0.0795
     20 C          25.1223   73.2475    2.6506 C.ar    1  UNL1        0.0869
     21 O          24.8797   69.8295    2.1673 O.2     1  UNL1       -0.2464
     22 O          28.4421   72.2876    3.1568 O.2     1  UNL1       -0.2670
     23 H          27.2374   70.2067    2.6613 H       1  UNL1        0.1734
     24 O          22.0818   71.4337   -4.1769 O.3     1  UNL1       -0.2703
     25 P          21.3248   72.2341   -5.3514 P.3     1  UNL1        0.2208
     26 O          21.0040   73.7332   -4.8580 O.3     1  UNL1       -0.4371
     27 O          22.1892   72.2846   -6.5508 O.2     1  UNL1       -0.5170
     28 O          19.9481   71.4814   -5.7128 O.3     1  UNL1       -0.2865
     29 C          18.8772   72.1129   -6.4169 C.3     1  UNL1        0.2611
     30 C          17.5391   71.6328   -5.8496 C.3     1  UNL1        0.1582
     31 C          17.4136   70.1221   -6.0698 C.3     1  UNL1        0.1625
     32 C          17.5515   69.8218   -7.5648 C.3     1  UNL1        0.1686
     33 C          18.8895   70.3717   -8.0660 C.3     1  UNL1        0.1760
     34 O          16.1355   69.6774   -5.6092 O.3     1  UNL1       -0.3801
     35 O          16.4814   70.4444   -8.2778 O.3     1  UNL1       -0.3794
     36 O          18.9544   71.7748   -7.8032 O.3     1  UNL1       -0.3263
     37 H          15.9875   68.7279   -5.7174 H       1  UNL1        0.2105
     38 H          16.5059   70.2962   -9.2336 H       1  UNL1        0.2105
     39 C          17.9062   71.0076   -3.5232 C.2     1  UNL1        0.2231
     40 C          17.8489   71.3073   -2.0483 C.3     1  UNL1        0.0946
     41 N          17.4828   71.9249   -4.4150 N.am    1  UNL1       -0.2994
     42 O          18.3338   69.9398   -3.9093 O.2     1  UNL1       -0.2751
     43 H          17.1399   72.7784   -4.1068 H       1  UNL1        0.1496
     44 C          19.0088   70.1284   -9.5717 C.3     1  UNL1        0.1693
     45 O          18.4248   71.2239  -10.2797 O.3     1  UNL1       -0.3794
     46 H          18.4646   71.1370  -11.2419 H       1  UNL1        0.2105
@<TRIPOS>BOND
     1    29    30    1
     2    30    41    1
     3    30    31    1
     4    31    34    1
     5    31    32    1
     6    32    35    1
     7    32    33    1
     8    33    36    1
     9    33    44    1
    10    39    40    1
    11    39    42    2
    12    39    41   am
    13    41    43    1
    14    29    28    1
    15    34    37    1
    16    35    38    1
    17    29    36    1
    18    44    45    1
    19    45    46    1
    20    15     6    1
    21    15    16   ar
    22    16    21    2
    23    16    17   ar
    24    17    23    1
    25    17    18   ar
    26    18    19   ar
    27    19    20   ar
    28    15    20   ar
    29    18    22    2
    30     6     7    1
    31     6    11    1
    32     7     9    1
    33     7     8    1
    34     8    13    1
    35     9    10    1
    36     9    12    1
    37    10     5    1
    38    10    11    1
    39    12    14    1
    40     5     4    1
    41     4     1    1
    42     1     2    1
    43     1    24    1
    44     1     3    2
    45    24    25    1
    46    28    25    1
    47    25    26    1
    48    25    27    2
