@<TRIPOS>MOLECULE
UD2
 46 48 0 0 0
SMALL
GASTEIGER

@<TRIPOS>ATOM
      1 P          21.4463   70.7539   -2.6272 P.3     1  UNL1        0.2189
      2 O          20.9851   69.2477   -2.9588 O.3     1  UNL1       -0.4371
      3 O          21.9281   71.4066   -3.8644 O.2     1  UNL1       -0.5170
      4 O          20.1964   71.5800   -2.0363 O.3     1  UNL1       -0.3112
      5 C          19.6824   72.7604   -2.6558 C.3     1  UNL1        0.1811
      6 C          17.6755   71.5071   -5.3647 C.3     1  UNL1        0.2383
      7 C          17.8345   70.2995   -4.4063 C.3     1  UNL1        0.1895
      8 O          16.6901   69.4460   -4.4671 O.3     1  UNL1       -0.3779
      9 C          17.9348   70.9915   -3.0249 C.3     1  UNL1        0.1713
     10 C          18.3612   72.4343   -3.3566 C.3     1  UNL1        0.1764
     11 O          18.5308   72.5136   -4.7808 O.3     1  UNL1       -0.3308
     12 O          16.6657   70.9828   -2.3692 O.3     1  UNL1       -0.3794
     13 H          16.7424   68.6756   -3.8854 H       1  UNL1        0.2106
     14 H          16.3212   70.0977   -2.1891 H       1  UNL1        0.2105
     15 N          18.1322   71.1599   -6.7122 N.ar    1  UNL1       -0.2551
     16 C          17.2449   70.7280   -7.6259 C.ar    1  UNL1        0.3323
     17 N          17.6366   70.4017   -8.8719 N.ar    1  UNL1       -0.2743
     18 C          18.9340   70.5060   -9.2246 C.ar    1  UNL1        0.2626
     19 C          19.8787   70.9603   -8.2731 C.ar    1  UNL1        0.0795
     20 C          19.4573   71.2845   -7.0326 C.ar    1  UNL1        0.0869
     21 O          16.0718   70.6292   -7.3219 O.2     1  UNL1       -0.2464
     22 O          19.2898   70.2114  -10.3520 O.2     1  UNL1       -0.2670
     23 H          16.9839   70.0908   -9.5180 H       1  UNL1        0.1734
     24 O          22.6324   70.7249   -1.5384 O.3     1  UNL1       -0.2703
     25 P          22.6888   70.4433    0.0461 P.3     1  UNL1        0.2208
     26 O          21.4007   69.5811    0.4835 O.3     1  UNL1       -0.4371
     27 O          23.9196   69.6893    0.3700 O.2     1  UNL1       -0.5170
     28 O          22.6923   71.8441    0.8402 O.3     1  UNL1       -0.2865
     29 C          21.4962   72.5319    1.2108 C.3     1  UNL1        0.2611
     30 C          21.6025   74.0016    0.7969 C.3     1  UNL1        0.1582
     31 C          22.7660   74.6526    1.5511 C.3     1  UNL1        0.1625
     32 C          22.5400   74.4884    3.0566 C.3     1  UNL1        0.1686
     33 C          22.3976   72.9995    3.3834 C.3     1  UNL1        0.1760
     34 O          22.8267   76.0433    1.2262 O.3     1  UNL1       -0.3801
     35 O          21.3484   75.1779    3.4387 O.3     1  UNL1       -0.3794
     36 O          21.3182   72.4484    2.6263 O.3     1  UNL1       -0.3263
     37 H          23.5427   76.5193    1.6690 H       1  UNL1        0.2105
     38 H          21.1425   75.1156    4.3820 H       1  UNL1        0.2105
     39 C          23.1050   74.1849   -1.1126 C.2     1  UNL1        0.2231
     40 C          23.3550   74.2730   -2.5953 C.3     1  UNL1        0.0946
     41 N          21.8447   74.0875   -0.6455 N.am    1  UNL1       -0.2994
     42 O          24.0387   74.2018   -0.3379 O.2     1  UNL1       -0.2751
     43 H          21.0980   74.0750   -1.2645 H       1  UNL1        0.1496
     44 C          22.1120   72.8304    4.8768 C.3     1  UNL1        0.1693
     45 O          20.7312   73.0966    5.1316 O.3     1  UNL1       -0.3794
     46 H          20.4780   73.0083    6.0607 H       1  UNL1        0.2105
@<TRIPOS>BOND
     1    29    30    1
     2    30    41    1
     3    30    31    1
     4    31    34    1
     5    31    32    1
     6    32    35    1
     7    32    33    1
     8    33    36    1
     9    33    44    1
    10    39    40    1
    11    39    42    2
    12    39    41   am
    13    41    43    1
    14    29    28    1
    15    34    37    1
    16    35    38    1
    17    29    36    1
    18    44    45    1
    19    45    46    1
    20    15     6    1
    21    15    16   ar
    22    16    21    2
    23    16    17   ar
    24    17    23    1
    25    17    18   ar
    26    18    19   ar
    27    19    20   ar
    28    15    20   ar
    29    18    22    2
    30     6     7    1
    31     6    11    1
    32     7     9    1
    33     7     8    1
    34     8    13    1
    35     9    10    1
    36     9    12    1
    37    10     5    1
    38    10    11    1
    39    12    14    1
    40     5     4    1
    41     4     1    1
    42     1     2    1
    43     1    24    1
    44     1     3    2
    45    24    25    1
    46    28    25    1
    47    25    26    1
    48    25    27    2
@<TRIPOS>MOLECULE
UD2
 46 48 0 0 0
SMALL
GASTEIGER

@<TRIPOS>ATOM
      1 P          21.9811   70.7959   -0.3565 P.3     1  UNL1        0.2189
      2 O          21.7267   69.4330    0.4615 O.3     1  UNL1       -0.4371
      3 O          23.1559   70.6296   -1.2402 O.2     1  UNL1       -0.5170
      4 O          20.6835   71.1372   -1.2472 O.3     1  UNL1       -0.3112
      5 C          20.7508   71.3988   -2.6503 C.3     1  UNL1        0.1811
      6 C          18.2447   71.1410   -5.2173 C.3     1  UNL1        0.2383
      7 C          18.1551   69.7980   -4.4489 C.3     1  UNL1        0.1895
      8 O          16.8214   69.2857   -4.4707 O.3     1  UNL1       -0.3779
      9 C          18.5629   70.2159   -3.0148 C.3     1  UNL1        0.1713
     10 C          19.3335   71.5353   -3.2119 C.3     1  UNL1        0.1764
     11 O          19.3899   71.7909   -4.6243 O.3     1  UNL1       -0.3308
     12 O          17.4031   70.4291   -2.2085 O.3     1  UNL1       -0.3794
     13 H          16.7145   68.4462   -4.0034 H       1  UNL1        0.2106
     14 H          16.8489   69.6445   -2.1000 H       1  UNL1        0.2105
     15 N          18.4673   70.9043   -6.6453 N.ar    1  UNL1       -0.2551
     16 C          17.4140   70.7750   -7.4716 C.ar    1  UNL1        0.3323
     17 N          17.5891   70.5567   -8.7883 N.ar    1  UNL1       -0.2743
     18 C          18.8328   70.4659   -9.3018 C.ar    1  UNL1        0.2626
     19 C          19.9506   70.6011   -8.4438 C.ar    1  UNL1        0.0795
     20 C          19.7457   70.8236   -7.1285 C.ar    1  UNL1        0.0869
     21 O          16.2870   70.8548   -7.0225 O.2     1  UNL1       -0.2464
     22 O          18.9926   70.2688  -10.4935 O.2     1  UNL1       -0.2670
     23 H          16.8187   70.4647   -9.3698 H       1  UNL1        0.1734
     24 O          22.2531   72.0000    0.6776 O.3     1  UNL1       -0.2703
     25 P          21.3388   72.7831    1.7470 P.3     1  UNL1        0.2208
     26 O          20.1987   73.6146    0.9708 O.3     1  UNL1       -0.4371
     27 O          20.7024   71.8084    2.6599 O.2     1  UNL1       -0.5170
     28 O          22.2567   73.7961    2.5980 O.3     1  UNL1       -0.2865
     29 C          23.0663   73.3760    3.6977 C.3     1  UNL1        0.2611
     30 C          22.4888   73.9345    5.0005 C.3     1  UNL1        0.1582
     31 C          22.5285   75.4650    4.9516 C.3     1  UNL1        0.1625
     32 C          23.9709   75.9202    4.7140 C.3     1  UNL1        0.1686
     33 C          24.4914   75.2850    3.4219 C.3     1  UNL1        0.1760
     34 O          22.0591   75.9944    6.1937 O.3     1  UNL1       -0.3801
     35 O          24.7883   75.5098    5.8116 O.3     1  UNL1       -0.3794
     36 O          24.3984   73.8625    3.5212 O.3     1  UNL1       -0.3263
     37 H          22.0563   76.9606    6.2330 H       1  UNL1        0.2105
     38 H          25.7178   75.7648    5.7276 H       1  UNL1        0.2105
     39 C          20.0898   74.2694    4.7348 C.2     1  UNL1        0.2231
     40 C          18.6646   73.8082    4.8914 C.3     1  UNL1        0.0946
     41 N          21.1027   73.4852    5.1534 N.am    1  UNL1       -0.2994
     42 O          20.3268   75.3477    4.2314 O.2     1  UNL1       -0.2751
     43 H          20.9136   72.6235    5.5568 H       1  UNL1        0.1496
     44 C          25.9519   75.6873    3.2085 C.3     1  UNL1        0.1693
     45 O          26.1609   77.0090    3.7102 O.3     1  UNL1       -0.3794
     46 H          27.0672   77.3304    3.6080 H       1  UNL1        0.2105
@<TRIPOS>BOND
     1    29    30    1
     2    30    41    1
     3    30    31    1
     4    31    34    1
     5    31    32    1
     6    32    35    1
     7    32    33    1
     8    33    36    1
     9    33    44    1
    10    39    40    1
    11    39    42    2
    12    39    41   am
    13    41    43    1
    14    29    28    1
    15    34    37    1
    16    35    38    1
    17    29    36    1
    18    44    45    1
    19    45    46    1
    20    15     6    1
    21    15    16   ar
    22    16    21    2
    23    16    17   ar
    24    17    23    1
    25    17    18   ar
    26    18    19   ar
    27    19    20   ar
    28    15    20   ar
    29    18    22    2
    30     6     7    1
    31     6    11    1
    32     7     9    1
    33     7     8    1
    34     8    13    1
    35     9    10    1
    36     9    12    1
    37    10     5    1
    38    10    11    1
    39    12    14    1
    40     5     4    1
    41     4     1    1
    42     1     2    1
    43     1    24    1
    44     1     3    2
    45    24    25    1
    46    28    25    1
    47    25    26    1
    48    25    27    2
@<TRIPOS>MOLECULE
UD2
 46 48 0 0 0
SMALL
GASTEIGER

@<TRIPOS>ATOM
      1 P          21.9748   70.8011   -0.3526 P.3     1  UNL1        0.2189
      2 O          21.6900   69.7211    0.8067 O.3     1  UNL1       -0.4371
      3 O          23.1449   70.3725   -1.1502 O.2     1  UNL1       -0.5170
      4 O          20.6846   70.9135   -1.3099 O.3     1  UNL1       -0.3112
      5 C          20.7775   71.1715   -2.7121 C.3     1  UNL1        0.1811
      6 C          18.2742   71.1111   -5.2941 C.3     1  UNL1        0.2383
      7 C          18.0857   69.7719   -4.5372 C.3     1  UNL1        0.1895
      8 O          16.7193   69.3553   -4.5701 O.3     1  UNL1       -0.3779
      9 C          18.5137   70.1488   -3.0977 C.3     1  UNL1        0.1713
     10 C          19.3765   71.4120   -3.2800 C.3     1  UNL1        0.1764
     11 O          19.4590   71.6740   -4.6899 O.3     1  UNL1       -0.3308
     12 O          17.3672   70.4371   -2.2957 O.3     1  UNL1       -0.3794
     13 H          16.5507   68.5218   -4.1102 H       1  UNL1        0.2106
     14 H          16.7584   69.6928   -2.1964 H       1  UNL1        0.2105
     15 N          18.4878   70.8704   -6.7229 N.ar    1  UNL1       -0.2551
     16 C          17.4293   70.7474   -7.5435 C.ar    1  UNL1        0.3323
     17 N          17.5961   70.5257   -8.8608 N.ar    1  UNL1       -0.2743
     18 C          18.8364   70.4249   -9.3804 C.ar    1  UNL1        0.2626
     19 C          19.9596   70.5534   -8.5284 C.ar    1  UNL1        0.0795
     20 C          19.7630   70.7796   -7.2124 C.ar    1  UNL1        0.0869
     21 O          16.3052   70.8363   -7.0888 O.2     1  UNL1       -0.2464
     22 O          18.9887   70.2247  -10.5726 O.2     1  UNL1       -0.2670
     23 H          16.8220   70.4383   -9.4381 H       1  UNL1        0.1734
     24 O          22.2752   72.2365    0.3128 O.3     1  UNL1       -0.2703
     25 P          21.5812   73.6856    0.2054 P.3     1  UNL1        0.2208
     26 O          21.5125   74.1340   -1.3399 O.3     1  UNL1       -0.4371
     27 O          20.2116   73.6193    0.7606 O.2     1  UNL1       -0.5170
     28 O          22.4469   74.7580    1.0379 O.3     1  UNL1       -0.2865
     29 C          23.7948   74.5206    1.4479 C.3     1  UNL1        0.2611
     30 C          24.0930   75.3252    2.7153 C.3     1  UNL1        0.1582
     31 C          23.9576   76.8191    2.4049 C.3     1  UNL1        0.1625
     32 C          24.9016   77.1780    1.2540 C.3     1  UNL1        0.1686
     33 C          24.5721   76.3017    0.0426 C.3     1  UNL1        0.1760
     34 O          24.3058   77.5807    3.5633 O.3     1  UNL1       -0.3801
     35 O          26.2534   76.9494    1.6559 O.3     1  UNL1       -0.3794
     36 O          24.6870   74.9248    0.4073 O.3     1  UNL1       -0.3263
     37 H          24.2417   78.5375    3.4384 H       1  UNL1        0.2105
     38 H          26.9075   77.1555    0.9736 H       1  UNL1        0.2105
     39 C          23.5765   74.3504    4.8880 C.2     1  UNL1        0.2231
     40 C          22.5982   73.9697    5.9680 C.3     1  UNL1        0.0946
     41 N          23.1406   74.9550    3.7653 N.am    1  UNL1       -0.2994
     42 O          24.7581   74.1127    5.0284 O.2     1  UNL1       -0.2751
     43 H          22.1960   75.1443    3.6522 H       1  UNL1        0.1496
     44 C          25.5498   76.6124   -1.0923 C.3     1  UNL1        0.1693
     45 O          26.6828   75.7467   -0.9964 O.3     1  UNL1       -0.3794
     46 H          27.3458   75.8878   -1.6859 H       1  UNL1        0.2105
@<TRIPOS>BOND
     1    29    30    1
     2    30    41    1
     3    30    31    1
     4    31    34    1
     5    31    32    1
     6    32    35    1
     7    32    33    1
     8    33    36    1
     9    33    44    1
    10    39    40    1
    11    39    42    2
    12    39    41   am
    13    41    43    1
    14    29    28    1
    15    34    37    1
    16    35    38    1
    17    29    36    1
    18    44    45    1
    19    45    46    1
    20    15     6    1
    21    15    16   ar
    22    16    21    2
    23    16    17   ar
    24    17    23    1
    25    17    18   ar
    26    18    19   ar
    27    19    20   ar
    28    15    20   ar
    29    18    22    2
    30     6     7    1
    31     6    11    1
    32     7     9    1
    33     7     8    1
    34     8    13    1
    35     9    10    1
    36     9    12    1
    37    10     5    1
    38    10    11    1
    39    12    14    1
    40     5     4    1
    41     4     1    1
    42     1     2    1
    43     1    24    1
    44     1     3    2
    45    24    25    1
    46    28    25    1
    47    25    26    1
    48    25    27    2
@<TRIPOS>MOLECULE
UD2
 46 48 0 0 0
SMALL
GASTEIGER

@<TRIPOS>ATOM
      1 P          21.7668   70.6715   -0.4782 P.3     1  UNL1        0.2189
      2 O          21.5942   69.3143    0.3701 O.3     1  UNL1       -0.4371
      3 O          23.0022   70.5937   -1.2886 O.2     1  UNL1       -0.5170
      4 O          20.4977   70.8610   -1.4514 O.3     1  UNL1       -0.3112
      5 C          20.5544   71.6127   -2.6651 C.3     1  UNL1        0.1811
      6 C          18.1306   71.2302   -5.2949 C.3     1  UNL1        0.2383
      7 C          18.0399   69.9111   -4.4865 C.3     1  UNL1        0.1895
      8 O          16.7158   69.3756   -4.5309 O.3     1  UNL1       -0.3779
      9 C          18.3978   70.3814   -3.0553 C.3     1  UNL1        0.1713
     10 C          19.1524   71.7069   -3.2723 C.3     1  UNL1        0.1764
     11 O          19.2470   71.9183   -4.6899 O.3     1  UNL1       -0.3308
     12 O          17.2110   70.6003   -2.2908 O.3     1  UNL1       -0.3794
     13 H          16.6086   68.5497   -4.0400 H       1  UNL1        0.2106
     14 H          16.6666   69.8102   -2.1733 H       1  UNL1        0.2105
     15 N          18.3997   70.9520   -6.7075 N.ar    1  UNL1       -0.2551
     16 C          17.3738   70.7847   -7.5609 C.ar    1  UNL1        0.3323
     17 N          17.5917   70.5278   -8.8642 N.ar    1  UNL1       -0.2743
     18 C          18.8515   70.4358   -9.3365 C.ar    1  UNL1        0.2626
     19 C          19.9409   70.6108   -8.4495 C.ar    1  UNL1        0.0795
     20 C          19.6931   70.8715   -7.1487 C.ar    1  UNL1        0.0869
     21 O          16.2326   70.8651   -7.1490 O.2     1  UNL1       -0.2464
     22 O          19.0501   70.2037  -10.5160 O.2     1  UNL1       -0.2670
     23 H          16.8406   70.4086   -9.4657 H       1  UNL1        0.1734
     24 O          21.8626   71.9252    0.5279 O.3     1  UNL1       -0.2703
     25 P          22.1467   72.0728    2.1060 P.3     1  UNL1        0.2208
     26 O          20.7523   72.0136    2.9097 O.3     1  UNL1       -0.4371
     27 O          23.0217   70.9680    2.5556 O.2     1  UNL1       -0.5170
     28 O          22.8715   73.4821    2.3912 O.3     1  UNL1       -0.2865
     29 C          22.1524   74.6872    2.6590 C.3     1  UNL1        0.2611
     30 C          22.5877   75.7725    1.6714 C.3     1  UNL1        0.1582
     31 C          24.0777   76.0656    1.8724 C.3     1  UNL1        0.1625
     32 C          24.3143   76.4768    3.3282 C.3     1  UNL1        0.1686
     33 C          23.8123   75.3640    4.2521 C.3     1  UNL1        0.1760
     34 O          24.4760   77.1295    1.0048 O.3     1  UNL1       -0.3801
     35 O          23.6036   77.6849    3.6048 O.3     1  UNL1       -0.3794
     36 O          22.4285   75.1198    3.9928 O.3     1  UNL1       -0.3263
     37 H          25.4104   77.3679    1.0787 H       1  UNL1        0.2105
     38 H          23.7078   78.0044    4.5120 H       1  UNL1        0.2105
     39 C          21.2029   75.5941   -0.3256 C.2     1  UNL1        0.2231
     40 C          20.9689   75.1158   -1.7345 C.3     1  UNL1        0.0946
     41 N          22.3608   75.3066    0.3010 N.am    1  UNL1       -0.2994
     42 O          20.3486   76.2387    0.2461 O.2     1  UNL1       -0.2751
     43 H          23.0437   74.7904   -0.1553 H       1  UNL1        0.1496
     44 C          23.9905   75.7926    5.7098 C.3     1  UNL1        0.1693
     45 O          25.2279   76.4930    5.8533 O.3     1  UNL1       -0.3794
     46 H          25.4073   76.7952    6.7542 H       1  UNL1        0.2105
@<TRIPOS>BOND
     1    29    30    1
     2    30    41    1
     3    30    31    1
     4    31    34    1
     5    31    32    1
     6    32    35    1
     7    32    33    1
     8    33    36    1
     9    33    44    1
    10    39    40    1
    11    39    42    2
    12    39    41   am
    13    41    43    1
    14    29    28    1
    15    34    37    1
    16    35    38    1
    17    29    36    1
    18    44    45    1
    19    45    46    1
    20    15     6    1
    21    15    16   ar
    22    16    21    2
    23    16    17   ar
    24    17    23    1
    25    17    18   ar
    26    18    19   ar
    27    19    20   ar
    28    15    20   ar
    29    18    22    2
    30     6     7    1
    31     6    11    1
    32     7     9    1
    33     7     8    1
    34     8    13    1
    35     9    10    1
    36     9    12    1
    37    10     5    1
    38    10    11    1
    39    12    14    1
    40     5     4    1
    41     4     1    1
    42     1     2    1
    43     1    24    1
    44     1     3    2
    45    24    25    1
    46    28    25    1
    47    25    26    1
    48    25    27    2
@<TRIPOS>MOLECULE
UD2
 46 48 0 0 0
SMALL
GASTEIGER

@<TRIPOS>ATOM
      1 P          23.0333   72.2897   -3.2719 P.3     1  UNL1        0.2189
      2 O          23.4188   70.7268   -3.2750 O.3     1  UNL1       -0.4371
      3 O          23.6631   72.9561   -4.4330 O.2     1  UNL1       -0.5170
      4 O          21.4333   72.4478   -3.3651 O.3     1  UNL1       -0.3112
      5 C          20.5266   71.6181   -2.6364 C.3     1  UNL1        0.1811
      6 C          18.1192   71.2533   -5.2837 C.3     1  UNL1        0.2383
      7 C          18.0106   69.9363   -4.4740 C.3     1  UNL1        0.1895
      8 O          16.6822   69.4127   -4.5275 O.3     1  UNL1       -0.3779
      9 C          18.3620   70.4056   -3.0409 C.3     1  UNL1        0.1713
     10 C          19.1301   71.7239   -3.2542 C.3     1  UNL1        0.1764
     11 O          19.2371   71.9323   -4.6714 O.3     1  UNL1       -0.3308
     12 O          17.1716   70.6363   -2.2856 O.3     1  UNL1       -0.3794
     13 H          16.5639   68.5885   -4.0362 H       1  UNL1        0.2106
     14 H          16.6192   69.8513   -2.1710 H       1  UNL1        0.2105
     15 N          18.3963   70.9705   -6.6938 N.ar    1  UNL1       -0.2551
     16 C          17.3753   70.8072   -7.5538 C.ar    1  UNL1        0.3323
     17 N          17.6006   70.5462   -8.8551 N.ar    1  UNL1       -0.2743
     18 C          18.8630   70.4460   -9.3186 C.ar    1  UNL1        0.2626
     19 C          19.9473   70.6167   -8.4245 C.ar    1  UNL1        0.0795
     20 C          19.6922   70.8816   -7.1260 C.ar    1  UNL1        0.0869
     21 O          16.2318   70.8950   -7.1499 O.2     1  UNL1       -0.2464
     22 O          19.0683   70.2102  -10.4962 O.2     1  UNL1       -0.2670
     23 H          16.8529   70.4300   -9.4614 H       1  UNL1        0.1734
     24 O          23.5607   72.9702   -1.9110 O.3     1  UNL1       -0.2703
     25 P          23.5124   74.4663   -1.3176 P.3     1  UNL1        0.2208
     26 O          24.9465   75.1704   -1.5213 O.3     1  UNL1       -0.4371
     27 O          22.4754   75.2460   -2.0282 O.2     1  UNL1       -0.5170
     28 O          23.1601   74.4097    0.2526 O.3     1  UNL1       -0.2865
     29 C          21.8391   74.1808    0.7462 C.3     1  UNL1        0.2611
     30 C          21.8052   74.4384    2.2546 C.3     1  UNL1        0.1582
     31 C          22.7412   73.4480    2.9541 C.3     1  UNL1        0.1625
     32 C          22.3145   72.0210    2.5992 C.3     1  UNL1        0.1686
     33 C          22.3288   71.8566    1.0771 C.3     1  UNL1        0.1760
     34 O          22.6600   73.6328    4.3692 O.3     1  UNL1       -0.3801
     35 O          20.9959   71.7798    3.0938 O.3     1  UNL1       -0.3794
     36 O          21.4620   72.8270    0.4866 O.3     1  UNL1       -0.3263
     37 H          23.2289   73.0376    4.8764 H       1  UNL1        0.2105
     38 H          20.6600   70.8926    2.9037 H       1  UNL1        0.2105
     39 C          21.6107   76.5517    3.4520 C.2     1  UNL1        0.2231
     40 C          22.0666   77.9594    3.7331 C.3     1  UNL1        0.0946
     41 N          22.2490   75.8078    2.5272 N.am    1  UNL1       -0.2994
     42 O          20.6683   76.0866    4.0584 O.2     1  UNL1       -0.2751
     43 H          23.0019   76.1796    2.0415 H       1  UNL1        0.1496
     44 C          21.8462   70.4516    0.7116 C.3     1  UNL1        0.1693
     45 O          22.9233   69.5239    0.8586 O.3     1  UNL1       -0.3794
     46 H          22.6889   68.6109    0.6430 H       1  UNL1        0.2105
@<TRIPOS>BOND
     1    29    30    1
     2    30    41    1
     3    30    31    1
     4    31    34    1
     5    31    32    1
     6    32    35    1
     7    32    33    1
     8    33    36    1
     9    33    44    1
    10    39    40    1
    11    39    42    2
    12    39    41   am
    13    41    43    1
    14    29    28    1
    15    34    37    1
    16    35    38    1
    17    29    36    1
    18    44    45    1
    19    45    46    1
    20    15     6    1
    21    15    16   ar
    22    16    21    2
    23    16    17   ar
    24    17    23    1
    25    17    18   ar
    26    18    19   ar
    27    19    20   ar
    28    15    20   ar
    29    18    22    2
    30     6     7    1
    31     6    11    1
    32     7     9    1
    33     7     8    1
    34     8    13    1
    35     9    10    1
    36     9    12    1
    37    10     5    1
    38    10    11    1
    39    12    14    1
    40     5     4    1
    41     4     1    1
    42     1     2    1
    43     1    24    1
    44     1     3    2
    45    24    25    1
    46    28    25    1
    47    25    26    1
    48    25    27    2
@<TRIPOS>MOLECULE
UD2
 46 48 0 0 0
SMALL
GASTEIGER

@<TRIPOS>ATOM
      1 P          22.8348   72.0363   -3.2281 P.3     1  UNL1        0.2189
      2 O          23.4772   70.5607   -3.1936 O.3     1  UNL1       -0.4371
      3 O          23.5011   72.8407   -4.2759 O.2     1  UNL1       -0.5170
      4 O          21.2611   71.9289   -3.5535 O.3     1  UNL1       -0.3112
      5 C          20.2485   72.1059   -2.5612 C.3     1  UNL1        0.1811
      6 C          17.9831   71.3736   -5.2571 C.3     1  UNL1        0.2383
      7 C          17.9966   70.0836   -4.3981 C.3     1  UNL1        0.1895
      8 O          16.7375   69.4115   -4.4672 O.3     1  UNL1       -0.3779
      9 C          18.2473   70.6423   -2.9760 C.3     1  UNL1        0.1713
     10 C          18.8695   72.0302   -3.2211 C.3     1  UNL1        0.1764
     11 O          18.9978   72.1968   -4.6421 O.3     1  UNL1       -0.3308
     12 O          17.0150   70.7648   -2.2638 O.3     1  UNL1       -0.3794
     13 H          16.6965   68.5980   -3.9465 H       1  UNL1        0.2106
     14 H          16.5505   69.9272   -2.1329 H       1  UNL1        0.2105
     15 N          18.3351   71.0719   -6.6464 N.ar    1  UNL1       -0.2551
     16 C          17.3634   70.8045   -7.5370 C.ar    1  UNL1        0.3323
     17 N          17.6580   70.5238   -8.8202 N.ar    1  UNL1       -0.2743
     18 C          18.9413   70.5084   -9.2344 C.ar    1  UNL1        0.2626
     19 C          19.9741   70.7891   -8.3077 C.ar    1  UNL1        0.0795
     20 C          19.6496   71.0714   -7.0285 C.ar    1  UNL1        0.0869
     21 O          16.2019   70.8150   -7.1777 O.2     1  UNL1       -0.2464
     22 O          19.2092   70.2549  -10.3956 O.2     1  UNL1       -0.2670
     23 H          16.9453   70.3321   -9.4491 H       1  UNL1        0.1734
     24 O          23.0389   72.7445   -1.7963 O.3     1  UNL1       -0.2703
     25 P          23.0943   74.2769   -1.3049 P.3     1  UNL1        0.2208
     26 O          24.5963   74.8365   -1.4623 O.3     1  UNL1       -0.4371
     27 O          22.1757   75.0930   -2.1287 O.2     1  UNL1       -0.5170
     28 O          22.6488   74.3614    0.2401 O.3     1  UNL1       -0.2865
     29 C          23.3669   73.7167    1.2937 C.3     1  UNL1        0.2611
     30 C          22.4881   72.6328    1.9226 C.3     1  UNL1        0.1582
     31 C          21.2472   73.2871    2.5379 C.3     1  UNL1        0.1625
     32 C          21.6908   74.3390    3.5582 C.3     1  UNL1        0.1686
     33 C          22.6005   75.3575    2.8660 C.3     1  UNL1        0.1760
     34 O          20.4572   72.2911    3.1915 O.3     1  UNL1       -0.3801
     35 O          22.4053   73.7035    4.6197 O.3     1  UNL1       -0.3794
     36 O          23.7186   74.6801    2.2889 O.3     1  UNL1       -0.3263
     37 H          19.6532   72.6357    3.6040 H       1  UNL1        0.2105
     38 H          22.7179   74.3119    5.3039 H       1  UNL1        0.2105
     39 C          22.5396   70.4113    0.9225 C.2     1  UNL1        0.2231
     40 C          22.1173   69.4278   -0.1371 C.3     1  UNL1        0.0946
     41 N          22.0771   71.6767    0.8913 N.am    1  UNL1       -0.2994
     42 O          23.2967   70.0647    1.8050 O.2     1  UNL1       -0.2751
     43 H          21.4725   71.9546    0.1854 H       1  UNL1        0.1496
     44 C          23.0962   76.3783    3.8920 C.3     1  UNL1        0.1693
     45 O          22.1407   76.4958    4.9481 O.3     1  UNL1       -0.3794
     46 H          22.3900   77.1277    5.6363 H       1  UNL1        0.2105
@<TRIPOS>BOND
     1    29    30    1
     2    30    41    1
     3    30    31    1
     4    31    34    1
     5    31    32    1
     6    32    35    1
     7    32    33    1
     8    33    36    1
     9    33    44    1
    10    39    40    1
    11    39    42    2
    12    39    41   am
    13    41    43    1
    14    29    28    1
    15    34    37    1
    16    35    38    1
    17    29    36    1
    18    44    45    1
    19    45    46    1
    20    15     6    1
    21    15    16   ar
    22    16    21    2
    23    16    17   ar
    24    17    23    1
    25    17    18   ar
    26    18    19   ar
    27    19    20   ar
    28    15    20   ar
    29    18    22    2
    30     6     7    1
    31     6    11    1
    32     7     9    1
    33     7     8    1
    34     8    13    1
    35     9    10    1
    36     9    12    1
    37    10     5    1
    38    10    11    1
    39    12    14    1
    40     5     4    1
    41     4     1    1
    42     1     2    1
    43     1    24    1
    44     1     3    2
    45    24    25    1
    46    28    25    1
    47    25    26    1
    48    25    27    2
@<TRIPOS>MOLECULE
UD2
 46 48 0 0 0
SMALL
GASTEIGER

@<TRIPOS>ATOM
      1 P          22.1779   70.5416   -0.1765 P.3     1  UNL1        0.2189
      2 O          21.4199   70.8484    1.2100 O.3     1  UNL1       -0.4371
      3 O          23.2812   69.5858    0.0646 O.2     1  UNL1       -0.5170
      4 O          21.1368   69.9056   -1.2278 O.3     1  UNL1       -0.3112
      5 C          21.1699   70.1955   -2.6265 C.3     1  UNL1        0.1811
      6 C          18.5744   70.8726   -5.0227 C.3     1  UNL1        0.2383
      7 C          18.1900   69.5025   -4.4084 C.3     1  UNL1        0.1895
      8 O          16.7716   69.3298   -4.3944 O.3     1  UNL1       -0.3779
      9 C          18.7459   69.6242   -2.9684 C.3     1  UNL1        0.1713
     10 C          19.8075   70.7363   -3.0673 C.3     1  UNL1        0.1764
     11 O          19.8672   71.1497   -4.4417 O.3     1  UNL1       -0.3308
     12 O          17.7075   70.0025   -2.0631 O.3     1  UNL1       -0.3794
     13 H          16.4814   68.4871   -4.0197 H       1  UNL1        0.2106
     14 H          16.9829   69.3652   -2.0061 H       1  UNL1        0.2105
     15 N          18.6738   70.7745   -6.4806 N.ar    1  UNL1       -0.2551
     16 C          17.5555   70.7916   -7.2274 C.ar    1  UNL1        0.3323
     17 N          17.6171   70.7029   -8.5693 N.ar    1  UNL1       -0.2743
     18 C          18.8104   70.5967   -9.1884 C.ar    1  UNL1        0.2626
     19 C          19.9957   70.5786   -8.4146 C.ar    1  UNL1        0.0795
     20 C          19.9046   70.6733   -7.0714 C.ar    1  UNL1        0.0869
     21 O          16.4726   70.8871   -6.6827 O.2     1  UNL1       -0.2464
     22 O          18.8675   70.5167  -10.4028 O.2     1  UNL1       -0.2670
     23 H          16.8009   70.7154   -9.0926 H       1  UNL1        0.1734
     24 O          22.7756   71.9115   -0.7762 O.3     1  UNL1       -0.2703
     25 P          22.3160   73.4535   -0.7138 P.3     1  UNL1        0.2208
     26 O          20.7276   73.5499   -0.9616 O.3     1  UNL1       -0.4371
     27 O          22.6420   74.0123    0.6165 O.2     1  UNL1       -0.5170
     28 O          23.0889   74.2902   -1.8519 O.3     1  UNL1       -0.2865
     29 C          23.5533   73.7037   -3.0691 C.3     1  UNL1        0.2611
     30 C          24.5510   74.6482   -3.7437 C.3     1  UNL1        0.1582
     31 C          23.8405   75.9577   -4.0999 C.3     1  UNL1        0.1625
     32 C          22.6387   75.6466   -4.9961 C.3     1  UNL1        0.1686
     33 C          21.7145   74.6633   -4.2730 C.3     1  UNL1        0.1760
     34 O          24.7456   76.8176   -4.7961 O.3     1  UNL1       -0.3801
     35 O          23.0930   75.0645   -6.2192 O.3     1  UNL1       -0.3794
     36 O          22.4448   73.4802   -3.9430 O.3     1  UNL1       -0.3263
     37 H          24.3617   77.6674   -5.0523 H       1  UNL1        0.2105
     38 H          22.3827   74.8405   -6.8367 H       1  UNL1        0.2105
     39 C          26.9204   74.9982   -3.2948 C.2     1  UNL1        0.2231
     40 C          28.0599   75.2840   -2.3523 C.3     1  UNL1        0.0946
     41 N          25.6589   74.9261   -2.8261 N.am    1  UNL1       -0.2994
     42 O          27.1378   74.8325   -4.4770 O.2     1  UNL1       -0.2751
     43 H          25.4848   75.0575   -1.8809 H       1  UNL1        0.1496
     44 C          20.5414   74.3010   -5.1858 C.3     1  UNL1        0.1693
     45 O          20.3273   75.3538   -6.1281 O.3     1  UNL1       -0.3794
     46 H          19.5968   75.1917   -6.7405 H       1  UNL1        0.2105
@<TRIPOS>BOND
     1    29    30    1
     2    30    41    1
     3    30    31    1
     4    31    34    1
     5    31    32    1
     6    32    35    1
     7    32    33    1
     8    33    36    1
     9    33    44    1
    10    39    40    1
    11    39    42    2
    12    39    41   am
    13    41    43    1
    14    29    28    1
    15    34    37    1
    16    35    38    1
    17    29    36    1
    18    44    45    1
    19    45    46    1
    20    15     6    1
    21    15    16   ar
    22    16    21    2
    23    16    17   ar
    24    17    23    1
    25    17    18   ar
    26    18    19   ar
    27    19    20   ar
    28    15    20   ar
    29    18    22    2
    30     6     7    1
    31     6    11    1
    32     7     9    1
    33     7     8    1
    34     8    13    1
    35     9    10    1
    36     9    12    1
    37    10     5    1
    38    10    11    1
    39    12    14    1
    40     5     4    1
    41     4     1    1
    42     1     2    1
    43     1    24    1
    44     1     3    2
    45    24    25    1
    46    28    25    1
    47    25    26    1
    48    25    27    2
@<TRIPOS>MOLECULE
UD2
 46 48 0 0 0
SMALL
GASTEIGER

@<TRIPOS>ATOM
      1 P          21.7485   70.6790   -0.3265 P.3     1  UNL1        0.2189
      2 O          21.5880   69.3287    0.5350 O.3     1  UNL1       -0.4371
      3 O          23.0153   70.6306   -1.0893 O.2     1  UNL1       -0.5170
      4 O          20.5112   70.8135   -1.3487 O.3     1  UNL1       -0.3112
      5 C          20.5831   71.5660   -2.5611 C.3     1  UNL1        0.1811
      6 C          18.1561   71.2563   -5.1975 C.3     1  UNL1        0.2383
      7 C          18.0445   69.9279   -4.4069 C.3     1  UNL1        0.1895
      8 O          16.7124   69.4134   -4.4595 O.3     1  UNL1       -0.3779
      9 C          18.4082   70.3733   -2.9693 C.3     1  UNL1        0.1713
     10 C          19.1833   71.6899   -3.1679 C.3     1  UNL1        0.1764
     11 O          19.2822   71.9190   -4.5825 O.3     1  UNL1       -0.3308
     12 O          17.2244   70.6000   -2.2027 O.3     1  UNL1       -0.3794
     13 H          16.5921   68.5826   -3.9799 H       1  UNL1        0.2106
     14 H          16.6678   69.8168   -2.0962 H       1  UNL1        0.2105
     15 N          18.4221   70.9931   -6.6134 N.ar    1  UNL1       -0.2551
     16 C          17.3944   70.8530   -7.4697 C.ar    1  UNL1        0.3323
     17 N          17.6095   70.6105   -8.7763 N.ar    1  UNL1       -0.2743
     18 C          18.8681   70.5056   -9.2489 C.ar    1  UNL1        0.2626
     19 C          19.9593   70.6520   -8.3590 C.ar    1  UNL1        0.0795
     20 C          19.7145   70.8988   -7.0549 C.ar    1  UNL1        0.0869
     21 O          16.2543   70.9453   -7.0575 O.2     1  UNL1       -0.2464
     22 O          19.0641   70.2865  -10.4313 O.2     1  UNL1       -0.2670
     23 H          16.8572   70.5109   -9.3798 H       1  UNL1        0.1734
     24 O          21.7661   71.9489    0.6637 O.3     1  UNL1       -0.2703
     25 P          22.3386   73.4494    0.5472 P.3     1  UNL1        0.2208
     26 O          23.3156   73.5530   -0.7289 O.3     1  UNL1       -0.4371
     27 O          21.2133   74.3957    0.3842 O.2     1  UNL1       -0.5170
     28 O          23.1593   73.8158    1.8832 O.3     1  UNL1       -0.2865
     29 C          23.0679   75.0870    2.5289 C.3     1  UNL1        0.2611
     30 C          24.4252   75.4511    3.1354 C.3     1  UNL1        0.1582
     31 C          24.7935   74.4137    4.2007 C.3     1  UNL1        0.1625
     32 C          23.6825   74.3619    5.2530 C.3     1  UNL1        0.1686
     33 C          22.3535   74.0397    4.5646 C.3     1  UNL1        0.1760
     34 O          26.0248   74.7862    4.8239 O.3     1  UNL1       -0.3801
     35 O          23.5867   75.6275    5.9091 O.3     1  UNL1       -0.3794
     36 O          22.0856   75.0250    3.5650 O.3     1  UNL1       -0.3263
     37 H          26.3194   74.1717    5.5101 H       1  UNL1        0.2105
     38 H          22.9005   75.6673    6.5900 H       1  UNL1        0.2105
     39 C          25.8415   76.6219    1.5352 C.2     1  UNL1        0.2231
     40 C          26.8905   76.6284    0.4543 C.3     1  UNL1        0.0946
     41 N          25.4454   75.4565    2.0839 N.am    1  UNL1       -0.2994
     42 O          25.3524   77.6663    1.9124 O.2     1  UNL1       -0.2751
     43 H          25.8355   74.6213    1.7820 H       1  UNL1        0.1496
     44 C          21.2282   74.0450    5.6010 C.3     1  UNL1        0.1693
     45 O          21.7824   73.8795    6.9078 O.3     1  UNL1       -0.3794
     46 H          21.1247   73.8733    7.6167 H       1  UNL1        0.2105
@<TRIPOS>BOND
     1    29    30    1
     2    30    41    1
     3    30    31    1
     4    31    34    1
     5    31    32    1
     6    32    35    1
     7    32    33    1
     8    33    36    1
     9    33    44    1
    10    39    40    1
    11    39    42    2
    12    39    41   am
    13    41    43    1
    14    29    28    1
    15    34    37    1
    16    35    38    1
    17    29    36    1
    18    44    45    1
    19    45    46    1
    20    15     6    1
    21    15    16   ar
    22    16    21    2
    23    16    17   ar
    24    17    23    1
    25    17    18   ar
    26    18    19   ar
    27    19    20   ar
    28    15    20   ar
    29    18    22    2
    30     6     7    1
    31     6    11    1
    32     7     9    1
    33     7     8    1
    34     8    13    1
    35     9    10    1
    36     9    12    1
    37    10     5    1
    38    10    11    1
    39    12    14    1
    40     5     4    1
    41     4     1    1
    42     1     2    1
    43     1    24    1
    44     1     3    2
    45    24    25    1
    46    28    25    1
    47    25    26    1
    48    25    27    2
@<TRIPOS>MOLECULE
UD2
 46 48 0 0 0
SMALL
GASTEIGER

@<TRIPOS>ATOM
      1 P          23.0178   72.7110   -3.8703 P.3     1  UNL1        0.2189
      2 O          24.2205   73.7589   -3.6541 O.3     1  UNL1       -0.4371
      3 O          23.5027   71.3397   -3.5995 O.2     1  UNL1       -0.5170
      4 O          21.8120   73.0628   -2.8624 O.3     1  UNL1       -0.3112
      5 C          22.0148   73.7044   -1.6020 C.3     1  UNL1        0.1811
      6 C          23.0626   72.3051    1.5415 C.3     1  UNL1        0.2383
      7 C          22.0287   71.2913    0.9888 C.3     1  UNL1        0.1895
      8 O          22.3363   69.9637    1.4186 O.3     1  UNL1       -0.3779
      9 C          22.2185   71.4345   -0.5412 C.3     1  UNL1        0.1713
     10 C          22.8838   72.8137   -0.7106 C.3     1  UNL1        0.1764
     11 O          23.0002   73.3961    0.5973 O.3     1  UNL1       -0.3308
     12 O          23.0729   70.4023   -1.0366 O.3     1  UNL1       -0.3794
     13 H          21.7174   69.2933    1.0989 H       1  UNL1        0.2106
     14 H          22.7298   69.5085   -0.9025 H       1  UNL1        0.2105
     15 N          22.6765   72.7578    2.8798 N.ar    1  UNL1       -0.2551
     16 C          21.4229   72.5468    3.3188 C.ar    1  UNL1        0.3323
     17 N          21.0406   72.9523    4.5442 N.ar    1  UNL1       -0.2743
     18 C          21.9165   73.5791    5.3557 C.ar    1  UNL1        0.2626
     19 C          23.2396   73.8069    4.9068 C.ar    1  UNL1        0.0795
     20 C          23.5968   73.3858    3.6753 C.ar    1  UNL1        0.0869
     21 O          20.6226   71.9827    2.5979 O.2     1  UNL1       -0.2464
     22 O          21.5718   73.9462    6.4652 O.2     1  UNL1       -0.2670
     23 H          20.1325   72.7932    4.8447 H       1  UNL1        0.1734
     24 O          22.4911   72.8041   -5.3893 O.3     1  UNL1       -0.2703
     25 P          21.1620   73.3988   -6.0771 P.3     1  UNL1        0.2208
     26 O          21.0222   74.9610   -5.7115 O.3     1  UNL1       -0.4371
     27 O          21.2540   73.2427   -7.5453 O.2     1  UNL1       -0.5170
     28 O          19.8733   72.6021   -5.5320 O.3     1  UNL1       -0.2865
     29 C          19.7334   71.1840   -5.6358 C.3     1  UNL1        0.2611
     30 C          18.5280   70.8525   -6.5187 C.3     1  UNL1        0.1582
     31 C          17.2576   71.3982   -5.8594 C.3     1  UNL1        0.1625
     32 C          17.1289   70.8036   -4.4543 C.3     1  UNL1        0.1686
     33 C          18.3886   71.1372   -3.6506 C.3     1  UNL1        0.1760
     34 O          16.1185   71.0293   -6.6402 O.3     1  UNL1       -0.3801
     35 O          16.9826   69.3855   -4.5472 O.3     1  UNL1       -0.3794
     36 O          19.5360   70.6287   -4.3339 O.3     1  UNL1       -0.3263
     37 H          15.2774   71.3433   -6.2808 H       1  UNL1        0.2105
     38 H          16.8963   68.9414   -3.6921 H       1  UNL1        0.2105
     39 C          19.4251   70.8461   -8.7843 C.2     1  UNL1        0.2231
     40 C          19.6031   71.4816  -10.1382 C.3     1  UNL1        0.0946
     41 N          18.7009   71.4715   -7.8354 N.am    1  UNL1       -0.2994
     42 O          19.9339   69.7704   -8.5474 O.2     1  UNL1       -0.2751
     43 H          18.2947   72.3320   -8.0241 H       1  UNL1        0.1496
     44 C          18.2939   70.4959   -2.2649 C.3     1  UNL1        0.1693
     45 O          18.5461   69.0932   -2.3701 O.3     1  UNL1       -0.3794
     46 H          18.5024   68.6208   -1.5275 H       1  UNL1        0.2105
@<TRIPOS>BOND
     1    29    30    1
     2    30    41    1
     3    30    31    1
     4    31    34    1
     5    31    32    1
     6    32    35    1
     7    32    33    1
     8    33    36    1
     9    33    44    1
    10    39    40    1
    11    39    42    2
    12    39    41   am
    13    41    43    1
    14    29    28    1
    15    34    37    1
    16    35    38    1
    17    29    36    1
    18    44    45    1
    19    45    46    1
    20    15     6    1
    21    15    16   ar
    22    16    21    2
    23    16    17   ar
    24    17    23    1
    25    17    18   ar
    26    18    19   ar
    27    19    20   ar
    28    15    20   ar
    29    18    22    2
    30     6     7    1
    31     6    11    1
    32     7     9    1
    33     7     8    1
    34     8    13    1
    35     9    10    1
    36     9    12    1
    37    10     5    1
    38    10    11    1
    39    12    14    1
    40     5     4    1
    41     4     1    1
    42     1     2    1
    43     1    24    1
    44     1     3    2
    45    24    25    1
    46    28    25    1
    47    25    26    1
    48    25    27    2
@<TRIPOS>MOLECULE
UD2
 46 48 0 0 0
SMALL
GASTEIGER

@<TRIPOS>ATOM
      1 P          21.9522   70.7729   -0.4828 P.3     1  UNL1        0.2189
      2 O          21.6050   69.5507    0.5056 O.3     1  UNL1       -0.4371
      3 O          23.0090   70.3566   -1.4308 O.2     1  UNL1       -0.5170
      4 O          20.6308   71.1922   -1.3023 O.3     1  UNL1       -0.3112
      5 C          20.6686   71.6555   -2.6534 C.3     1  UNL1        0.1811
      6 C          18.1844   71.1970   -5.2137 C.3     1  UNL1        0.2383
      7 C          18.1714   69.8684   -4.4156 C.3     1  UNL1        0.1895
      8 O          16.8693   69.2799   -4.4259 O.3     1  UNL1       -0.3779
      9 C          18.5528   70.3408   -2.9913 C.3     1  UNL1        0.1713
     10 C          19.2463   71.6977   -3.2177 C.3     1  UNL1        0.1764
     11 O          19.2896   71.9248   -4.6355 O.3     1  UNL1       -0.3308
     12 O          17.3817   70.5048   -2.1898 O.3     1  UNL1       -0.3794
     13 H          16.8104   68.4462   -3.9401 H       1  UNL1        0.2106
     14 H          16.8734   69.6922   -2.0638 H       1  UNL1        0.2105
     15 N          18.4219   70.9419   -6.6362 N.ar    1  UNL1       -0.2551
     16 C          17.3776   70.7629   -7.4646 C.ar    1  UNL1        0.3323
     17 N          17.5664   70.5267   -8.7764 N.ar    1  UNL1       -0.2743
     18 C          18.8150   70.4677   -9.2825 C.ar    1  UNL1        0.2626
     19 C          19.9234   70.6553   -8.4222 C.ar    1  UNL1        0.0795
     20 C          19.7046   70.8947   -7.1121 C.ar    1  UNL1        0.0869
     21 O          16.2463   70.8137   -7.0220 O.2     1  UNL1       -0.2464
     22 O          18.9872   70.2544  -10.4697 O.2     1  UNL1       -0.2670
     23 H          16.8024   70.3987   -9.3595 H       1  UNL1        0.1734
     24 O          22.4696   72.0306    0.3797 O.3     1  UNL1       -0.2703
     25 P          21.9145   72.7967    1.6828 P.3     1  UNL1        0.2208
     26 O          20.8846   71.8401    2.4689 O.3     1  UNL1       -0.4371
     27 O          23.0453   73.1399    2.5726 O.2     1  UNL1       -0.5170
     28 O          21.1580   74.1444    1.2313 O.3     1  UNL1       -0.2865
     29 C          20.2332   74.1908    0.1433 C.3     1  UNL1        0.2611
     30 C          20.7341   75.1801   -0.9117 C.3     1  UNL1        0.1582
     31 C          20.7983   76.5812   -0.2958 C.3     1  UNL1        0.1625
     32 C          19.4136   76.9555    0.2399 C.3     1  UNL1        0.1686
     33 C          18.9635   75.8975    1.2508 C.3     1  UNL1        0.1760
     34 O          21.1949   77.5238   -1.2944 O.3     1  UNL1       -0.3801
     35 O          18.4818   77.0103   -0.8418 O.3     1  UNL1       -0.3794
     36 O          18.9551   74.6140    0.6228 O.3     1  UNL1       -0.3263
     37 H          21.2572   78.4338   -0.9731 H       1  UNL1        0.2105
     38 H          17.5813   77.2419   -0.5747 H       1  UNL1        0.2105
     39 C          23.1636   75.3184   -0.7849 C.2     1  UNL1        0.2231
     40 C          24.5376   74.9086   -1.2462 C.3     1  UNL1        0.0946
     41 N          22.0703   74.7812   -1.3612 N.am    1  UNL1       -0.2994
     42 O          23.0405   76.1327    0.1061 O.2     1  UNL1       -0.2751
     43 H          22.1683   74.1309   -2.0743 H       1  UNL1        0.1496
     44 C          17.5554   76.2324    1.7463 C.3     1  UNL1        0.1693
     45 O          17.1063   75.2079    2.6357 O.3     1  UNL1       -0.3794
     46 H          16.2185   75.3548    2.9895 H       1  UNL1        0.2105
@<TRIPOS>BOND
     1    29    30    1
     2    30    41    1
     3    30    31    1
     4    31    34    1
     5    31    32    1
     6    32    35    1
     7    32    33    1
     8    33    36    1
     9    33    44    1
    10    39    40    1
    11    39    42    2
    12    39    41   am
    13    41    43    1
    14    29    28    1
    15    34    37    1
    16    35    38    1
    17    29    36    1
    18    44    45    1
    19    45    46    1
    20    15     6    1
    21    15    16   ar
    22    16    21    2
    23    16    17   ar
    24    17    23    1
    25    17    18   ar
    26    18    19   ar
    27    19    20   ar
    28    15    20   ar
    29    18    22    2
    30     6     7    1
    31     6    11    1
    32     7     9    1
    33     7     8    1
    34     8    13    1
    35     9    10    1
    36     9    12    1
    37    10     5    1
    38    10    11    1
    39    12    14    1
    40     5     4    1
    41     4     1    1
    42     1     2    1
    43     1    24    1
    44     1     3    2
    45    24    25    1
    46    28    25    1
    47    25    26    1
    48    25    27    2
@<TRIPOS>MOLECULE
UD2
 46 48 0 0 0
SMALL
GASTEIGER

@<TRIPOS>ATOM
      1 P          22.3930   70.6432   -0.4046 P.3     1  UNL1        0.2189
      2 O          21.2015   69.8419    0.3232 O.3     1  UNL1       -0.4371
      3 O          23.6379   69.8467   -0.3357 O.2     1  UNL1       -0.5170
      4 O          22.0041   70.8990   -1.9463 O.3     1  UNL1       -0.3112
      5 C          21.2791   69.9515   -2.7325 C.3     1  UNL1        0.1811
      6 C          18.6449   70.7820   -5.0364 C.3     1  UNL1        0.2383
      7 C          18.2395   69.4006   -4.4624 C.3     1  UNL1        0.1895
      8 O          16.8178   69.2637   -4.4188 O.3     1  UNL1       -0.3779
      9 C          18.8332   69.4552   -3.0334 C.3     1  UNL1        0.1713
     10 C          19.9211   70.5427   -3.1190 C.3     1  UNL1        0.1764
     11 O          19.9583   71.0046   -4.4787 O.3     1  UNL1       -0.3308
     12 O          17.8275   69.8263   -2.0892 O.3     1  UNL1       -0.3794
     13 H          16.5147   68.4156   -4.0675 H       1  UNL1        0.2106
     14 H          17.0879   69.2061   -2.0369 H       1  UNL1        0.2105
     15 N          18.7062   70.7350   -6.4989 N.ar    1  UNL1       -0.2551
     16 C          17.5690   70.7806   -7.2154 C.ar    1  UNL1        0.3323
     17 N          17.5956   70.7389   -8.5607 N.ar    1  UNL1       -0.2743
     18 C          18.7721   70.6520   -9.2140 C.ar    1  UNL1        0.2626
     19 C          19.9770   70.6042   -8.4724 C.ar    1  UNL1        0.0795
     20 C          19.9210   70.6519   -7.1247 C.ar    1  UNL1        0.0869
     21 O          16.5009   70.8592   -6.6397 O.2     1  UNL1       -0.2464
     22 O          18.7976   70.6146  -10.4315 O.2     1  UNL1       -0.2670
     23 H          16.7662   70.7716   -9.0619 H       1  UNL1        0.1734
     24 O          22.6184   72.0568    0.3330 O.3     1  UNL1       -0.2703
     25 P          22.4295   73.5927   -0.1123 P.3     1  UNL1        0.2208
     26 O          23.8721   74.2500   -0.3963 O.3     1  UNL1       -0.4371
     27 O          21.6100   73.6527   -1.3425 O.2     1  UNL1       -0.5170
     28 O          21.6912   74.4059    1.0651 O.3     1  UNL1       -0.2865
     29 C          20.7199   73.8137    1.9295 C.3     1  UNL1        0.2611
     30 C          19.6546   74.8523    2.2889 C.3     1  UNL1        0.1582
     31 C          20.3147   76.0052    3.0516 C.3     1  UNL1        0.1625
     32 C          21.0210   75.4459    4.2896 C.3     1  UNL1        0.1686
     33 C          22.0339   74.3841    3.8529 C.3     1  UNL1        0.1760
     34 O          19.3154   76.9443    3.4553 O.3     1  UNL1       -0.3801
     35 O          20.0571   74.8561    5.1639 O.3     1  UNL1       -0.3794
     36 O          21.3601   73.3571    3.1228 O.3     1  UNL1       -0.3263
     37 H          19.6636   77.7027    3.9439 H       1  UNL1        0.2105
     38 H          20.4354   74.4798    5.9709 H       1  UNL1        0.2105
     39 C          19.5485   76.4564    0.4577 C.2     1  UNL1        0.2231
     40 C          18.9157   76.9846   -0.8030 C.3     1  UNL1        0.0946
     41 N          19.0383   75.3657    1.0629 N.am    1  UNL1       -0.2994
     42 O          20.5182   77.0129    0.9291 O.2     1  UNL1       -0.2751
     43 H          18.2625   74.9210    0.6869 H       1  UNL1        0.1496
     44 C          22.7016   73.7778    5.0886 C.3     1  UNL1        0.1693
     45 O          22.0627   72.5426    5.4183 O.3     1  UNL1       -0.3794
     46 H          22.4353   72.1012    6.1938 H       1  UNL1        0.2105
@<TRIPOS>BOND
     1    29    30    1
     2    30    41    1
     3    30    31    1
     4    31    34    1
     5    31    32    1
     6    32    35    1
     7    32    33    1
     8    33    36    1
     9    33    44    1
    10    39    40    1
    11    39    42    2
    12    39    41   am
    13    41    43    1
    14    29    28    1
    15    34    37    1
    16    35    38    1
    17    29    36    1
    18    44    45    1
    19    45    46    1
    20    15     6    1
    21    15    16   ar
    22    16    21    2
    23    16    17   ar
    24    17    23    1
    25    17    18   ar
    26    18    19   ar
    27    19    20   ar
    28    15    20   ar
    29    18    22    2
    30     6     7    1
    31     6    11    1
    32     7     9    1
    33     7     8    1
    34     8    13    1
    35     9    10    1
    36     9    12    1
    37    10     5    1
    38    10    11    1
    39    12    14    1
    40     5     4    1
    41     4     1    1
    42     1     2    1
    43     1    24    1
    44     1     3    2
    45    24    25    1
    46    28    25    1
    47    25    26    1
    48    25    27    2
@<TRIPOS>MOLECULE
UD2
 46 48 0 0 0
SMALL
GASTEIGER

@<TRIPOS>ATOM
      1 P          22.9723   74.0105   -4.0366 P.3     1  UNL1        0.2189
      2 O          23.5861   75.1550   -4.9877 O.3     1  UNL1       -0.4371
      3 O          23.8942   72.8540   -3.9972 O.2     1  UNL1       -0.5170
      4 O          22.7811   74.5954   -2.5483 O.3     1  UNL1       -0.3112
      5 C          21.9658   73.9596   -1.5622 C.3     1  UNL1        0.1811
      6 C          23.0197   72.4026    1.5040 C.3     1  UNL1        0.2383
      7 C          21.9613   71.4335    0.9186 C.3     1  UNL1        0.1895
      8 O          22.2483   70.0826    1.2855 O.3     1  UNL1       -0.3779
      9 C          22.1378   71.6412   -0.6056 C.3     1  UNL1        0.1713
     10 C          22.8271   73.0142   -0.7211 C.3     1  UNL1        0.1764
     11 O          22.9680   73.5355    0.6100 O.3     1  UNL1       -0.3308
     12 O          22.9674   70.6167   -1.1559 O.3     1  UNL1       -0.3794
     13 H          21.6137   69.4386    0.9434 H       1  UNL1        0.2106
     14 H          22.6090   69.7243   -1.0578 H       1  UNL1        0.2105
     15 N          22.6562   72.8021    2.8654 N.ar    1  UNL1       -0.2551
     16 C          21.3962   72.6203    3.2993 C.ar    1  UNL1        0.3323
     17 N          21.0342   72.9783    4.5454 N.ar    1  UNL1       -0.2743
     18 C          21.9372   73.5269    5.3834 C.ar    1  UNL1        0.2626
     19 C          23.2673   73.7232    4.9401 C.ar    1  UNL1        0.0795
     20 C          23.6035   73.3510    3.6872 C.ar    1  UNL1        0.0869
     21 O          20.5716   72.1265    2.5546 O.2     1  UNL1       -0.2464
     22 O          21.6109   73.8510    6.5116 O.2     1  UNL1       -0.2670
     23 H          20.1212   72.8413    4.8418 H       1  UNL1        0.1734
     24 O          21.5449   73.5401   -4.6150 O.3     1  UNL1       -0.2703
     25 P          20.2312   74.3217   -5.1212 P.3     1  UNL1        0.2208
     26 O          19.3706   74.8041   -3.8483 O.3     1  UNL1       -0.4371
     27 O          20.6349   75.5007   -5.9184 O.2     1  UNL1       -0.5170
     28 O          19.3388   73.3379   -6.0313 O.3     1  UNL1       -0.2865
     29 C          17.9313   73.1726   -5.8498 C.3     1  UNL1        0.2611
     30 C          17.5118   71.7853   -6.3418 C.3     1  UNL1        0.1582
     31 C          17.8034   71.6752   -7.8415 C.3     1  UNL1        0.1625
     32 C          17.0684   72.7988   -8.5774 C.3     1  UNL1        0.1686
     33 C          17.5052   74.1474   -7.9991 C.3     1  UNL1        0.1760
     34 O          17.3473   70.4095   -8.3247 O.3     1  UNL1       -0.3801
     35 O          15.6589   72.6394   -8.4068 O.3     1  UNL1       -0.3794
     36 O          17.2346   74.1724   -6.5962 O.3     1  UNL1       -0.3263
     37 H          17.5010   70.2710   -9.2693 H       1  UNL1        0.2105
     38 H          15.1294   73.3188   -8.8472 H       1  UNL1        0.2105
     39 C          17.6714   70.0376   -4.6513 C.2     1  UNL1        0.2231
     40 C          18.4492   68.9834   -3.9081 C.3     1  UNL1        0.0946
     41 N          18.2691   70.7602   -5.6191 N.am    1  UNL1       -0.2994
     42 O          16.5060   70.2368   -4.3787 O.2     1  UNL1       -0.2751
     43 H          19.2011   70.6019   -5.8366 H       1  UNL1        0.1496
     44 C          16.7309   75.2725   -8.6884 C.3     1  UNL1        0.1693
     45 O          16.6481   75.0055  -10.0899 O.3     1  UNL1       -0.3794
     46 H          16.1693   75.6794  -10.5916 H       1  UNL1        0.2105
@<TRIPOS>BOND
     1    29    30    1
     2    30    41    1
     3    30    31    1
     4    31    34    1
     5    31    32    1
     6    32    35    1
     7    32    33    1
     8    33    36    1
     9    33    44    1
    10    39    40    1
    11    39    42    2
    12    39    41   am
    13    41    43    1
    14    29    28    1
    15    34    37    1
    16    35    38    1
    17    29    36    1
    18    44    45    1
    19    45    46    1
    20    15     6    1
    21    15    16   ar
    22    16    21    2
    23    16    17   ar
    24    17    23    1
    25    17    18   ar
    26    18    19   ar
    27    19    20   ar
    28    15    20   ar
    29    18    22    2
    30     6     7    1
    31     6    11    1
    32     7     9    1
    33     7     8    1
    34     8    13    1
    35     9    10    1
    36     9    12    1
    37    10     5    1
    38    10    11    1
    39    12    14    1
    40     5     4    1
    41     4     1    1
    42     1     2    1
    43     1    24    1
    44     1     3    2
    45    24    25    1
    46    28    25    1
    47    25    26    1
    48    25    27    2
@<TRIPOS>MOLECULE
UD2
 46 48 0 0 0
SMALL
GASTEIGER

@<TRIPOS>ATOM
      1 P          22.2293   70.9907   -2.6218 P.3     1  UNL1        0.2189
      2 O          23.6368   70.5188   -3.2444 O.3     1  UNL1       -0.4371
      3 O          21.5586   69.8356   -1.9855 O.2     1  UNL1       -0.5170
      4 O          22.4875   72.1357   -1.5190 O.3     1  UNL1       -0.3112
      5 C          22.5782   71.8608   -0.1199 C.3     1  UNL1        0.1811
      6 C          20.5286   73.1055    2.5609 C.3     1  UNL1        0.2383
      7 C          20.7353   74.3266    1.6291 C.3     1  UNL1        0.1895
      8 O          19.6066   75.2016    1.6769 O.3     1  UNL1       -0.3779
      9 C          20.8568   73.6575    0.2381 C.3     1  UNL1        0.1713
     10 C          21.2464   72.2007    0.5538 C.3     1  UNL1        0.1764
     11 O          21.3786   72.0927    1.9801 O.3     1  UNL1       -0.3308
     12 O          19.6050   73.7033   -0.4486 O.3     1  UNL1       -0.3794
     13 H          19.6886   75.9811    1.1109 H       1  UNL1        0.2106
     14 H          19.2825   74.5981   -0.6210 H       1  UNL1        0.2105
     15 N          20.9579   73.4195    3.9255 N.ar    1  UNL1       -0.2551
     16 C          20.0456   73.7844    4.8438 C.ar    1  UNL1        0.3323
     17 N          20.4118   74.0788    6.1053 N.ar    1  UNL1       -0.2743
     18 C          21.7085   74.0096    6.4693 C.ar    1  UNL1        0.2626
     19 C          22.6793   73.6258    5.5131 C.ar    1  UNL1        0.0795
     20 C          22.2833   73.3322    4.2567 C.ar    1  UNL1        0.0869
     21 O          18.8729   73.8509    4.5297 O.2     1  UNL1       -0.2464
     22 O          22.0412   74.2753    7.6108 O.2     1  UNL1       -0.2670
     23 H          19.7413   74.3413    6.7546 H       1  UNL1        0.1734
     24 O          21.2931   71.5766   -3.7937 O.3     1  UNL1       -0.2703
     25 P          21.4149   72.8259   -4.8024 P.3     1  UNL1        0.2208
     26 O          21.3439   74.1999   -3.9652 O.3     1  UNL1       -0.4371
     27 O          22.7047   72.7544   -5.5233 O.2     1  UNL1       -0.5170
     28 O          20.2038   72.7797   -5.8625 O.3     1  UNL1       -0.2865
     29 C          18.8355   72.9525   -5.4892 C.3     1  UNL1        0.2611
     30 C          18.0727   71.6465   -5.7240 C.3     1  UNL1        0.1582
     31 C          18.1080   71.3060   -7.2170 C.3     1  UNL1        0.1625
     32 C          17.5165   72.4743   -8.0103 C.3     1  UNL1        0.1686
     33 C          18.3010   73.7488   -7.6873 C.3     1  UNL1        0.1760
     34 O          17.3359   70.1269   -7.4560 O.3     1  UNL1       -0.3801
     35 O          16.1458   72.6520   -7.6484 O.3     1  UNL1       -0.3794
     36 O          18.2541   73.9913   -6.2799 O.3     1  UNL1       -0.3263
     37 H          17.3150   69.8521   -8.3829 H       1  UNL1        0.2105
     38 H          15.7065   73.3780   -8.1132 H       1  UNL1        0.2105
     39 C          17.9421   69.6866   -4.2820 C.2     1  UNL1        0.2231
     40 C          18.5902   68.5765   -3.4970 C.3     1  UNL1        0.0946
     41 N          18.7039   70.5671   -4.9605 N.am    1  UNL1       -0.2994
     42 O          16.7332   69.7886   -4.3038 O.2     1  UNL1       -0.2751
     43 H          19.6705   70.4864   -4.9425 H       1  UNL1        0.1496
     44 C          17.6787   74.9325   -8.4302 C.3     1  UNL1        0.1693
     45 O          17.1419   74.4847   -9.6767 O.3     1  UNL1       -0.3794
     46 H          16.7304   75.1842  -10.2024 H       1  UNL1        0.2105
@<TRIPOS>BOND
     1    29    30    1
     2    30    41    1
     3    30    31    1
     4    31    34    1
     5    31    32    1
     6    32    35    1
     7    32    33    1
     8    33    36    1
     9    33    44    1
    10    39    40    1
    11    39    42    2
    12    39    41   am
    13    41    43    1
    14    29    28    1
    15    34    37    1
    16    35    38    1
    17    29    36    1
    18    44    45    1
    19    45    46    1
    20    15     6    1
    21    15    16   ar
    22    16    21    2
    23    16    17   ar
    24    17    23    1
    25    17    18   ar
    26    18    19   ar
    27    19    20   ar
    28    15    20   ar
    29    18    22    2
    30     6     7    1
    31     6    11    1
    32     7     9    1
    33     7     8    1
    34     8    13    1
    35     9    10    1
    36     9    12    1
    37    10     5    1
    38    10    11    1
    39    12    14    1
    40     5     4    1
    41     4     1    1
    42     1     2    1
    43     1    24    1
    44     1     3    2
    45    24    25    1
    46    28    25    1
    47    25    26    1
    48    25    27    2
@<TRIPOS>MOLECULE
UD2
 46 48 0 0 0
SMALL
GASTEIGER

@<TRIPOS>ATOM
      1 P          22.2946   70.9432   -2.8465 P.3     1  UNL1        0.2189
      2 O          23.7776   70.8019   -3.4565 O.3     1  UNL1       -0.4371
      3 O          21.4923   69.7572   -3.2190 O.2     1  UNL1       -0.5170
      4 O          22.3823   71.0494   -1.2419 O.3     1  UNL1       -0.3112
      5 C          21.2761   71.4421   -0.4274 C.3     1  UNL1        0.1811
      6 C          21.8573   74.1490    1.8686 C.3     1  UNL1        0.2383
      7 C          23.2549   73.8315    1.2786 C.3     1  UNL1        0.1895
      8 O          24.0650   75.0074    1.2251 O.3     1  UNL1       -0.3779
      9 C          22.9022   73.3385   -0.1462 C.3     1  UNL1        0.1713
     10 C          21.4240   72.9164   -0.0433 C.3     1  UNL1        0.1764
     11 O          21.0180   73.1092    1.3210 O.3     1  UNL1       -0.3308
     12 O          23.0558   74.3973   -1.0928 O.3     1  UNL1       -0.3794
     13 H          24.9495   74.8598    0.8637 H       1  UNL1        0.2106
     14 H          23.9566   74.7422   -1.1556 H       1  UNL1        0.2105
     15 N          21.8855   74.0732    3.3310 N.ar    1  UNL1       -0.2551
     16 C          22.0171   72.8783    3.9339 C.ar    1  UNL1        0.3323
     17 N          22.0458   72.7790    5.2762 N.ar    1  UNL1       -0.2743
     18 C          21.9440   73.8851    6.0409 C.ar    1  UNL1        0.2626
     19 C          21.8060   75.1495    5.4194 C.ar    1  UNL1        0.0795
     20 C          21.7845   75.2200    4.0718 C.ar    1  UNL1        0.0869
     21 O          22.1101   71.8726    3.2570 O.2     1  UNL1       -0.2464
     22 O          21.9702   73.7966    7.2558 O.2     1  UNL1       -0.2670
     23 H          22.1401   71.9095    5.6947 H       1  UNL1        0.1734
     24 O          21.5965   72.2700   -3.4341 O.3     1  UNL1       -0.2703
     25 P          21.4729   72.9096   -4.9068 P.3     1  UNL1        0.2208
     26 O          20.9402   74.4249   -4.7903 O.3     1  UNL1       -0.4371
     27 O          22.7998   72.9028   -5.5608 O.2     1  UNL1       -0.5170
     28 O          20.4376   72.0422   -5.7833 O.3     1  UNL1       -0.2865
     29 C          19.2794   72.6050   -6.4023 C.3     1  UNL1        0.2611
     30 C          18.0221   71.9504   -5.8250 C.3     1  UNL1        0.1582
     31 C          18.0416   70.4534   -6.1493 C.3     1  UNL1        0.1625
     32 C          18.1464   70.2718   -7.6660 C.3     1  UNL1        0.1686
     33 C          19.3994   70.9913   -8.1724 C.3     1  UNL1        0.1760
     34 O          16.8360   69.8473   -5.6779 O.3     1  UNL1       -0.3801
     35 O          16.9895   70.8266   -8.2945 O.3     1  UNL1       -0.3794
     36 O          19.3323   72.3723   -7.8113 O.3     1  UNL1       -0.3263
     37 H          16.7808   68.8971   -5.8492 H       1  UNL1        0.2105
     38 H          16.9888   70.7473   -9.2587 H       1  UNL1        0.2105
     39 C          17.1293   71.4333   -3.6175 C.2     1  UNL1        0.2231
     40 C          17.1027   71.6237   -2.1237 C.3     1  UNL1        0.0946
     41 N          17.9967   72.1364   -4.3720 N.am    1  UNL1       -0.2994
     42 O          16.3694   70.6464   -4.1425 O.2     1  UNL1       -0.2751
     43 H          18.6037   72.7663   -3.9528 H       1  UNL1        0.1496
     44 C          19.4793   70.8651   -9.6949 C.3     1  UNL1        0.1693
     45 O          18.6969   71.8961  -10.3008 O.3     1  UNL1       -0.3794
     46 H          18.7014   71.8773  -11.2676 H       1  UNL1        0.2105
@<TRIPOS>BOND
     1    29    30    1
     2    30    41    1
     3    30    31    1
     4    31    34    1
     5    31    32    1
     6    32    35    1
     7    32    33    1
     8    33    36    1
     9    33    44    1
    10    39    40    1
    11    39    42    2
    12    39    41   am
    13    41    43    1
    14    29    28    1
    15    34    37    1
    16    35    38    1
    17    29    36    1
    18    44    45    1
    19    45    46    1
    20    15     6    1
    21    15    16   ar
    22    16    21    2
    23    16    17   ar
    24    17    23    1
    25    17    18   ar
    26    18    19   ar
    27    19    20   ar
    28    15    20   ar
    29    18    22    2
    30     6     7    1
    31     6    11    1
    32     7     9    1
    33     7     8    1
    34     8    13    1
    35     9    10    1
    36     9    12    1
    37    10     5    1
    38    10    11    1
    39    12    14    1
    40     5     4    1
    41     4     1    1
    42     1     2    1
    43     1    24    1
    44     1     3    2
    45    24    25    1
    46    28    25    1
    47    25    26    1
    48    25    27    2
@<TRIPOS>MOLECULE
UD2
 46 48 0 0 0
SMALL
GASTEIGER

@<TRIPOS>ATOM
      1 P          22.1431   73.0802   -1.4389 P.3     1  UNL1        0.2189
      2 O          21.3835   73.9495   -0.3171 O.3     1  UNL1       -0.4371
      3 O          22.8375   71.9428   -0.7962 O.2     1  UNL1       -0.5170
      4 O          21.0704   72.5222   -2.5027 O.3     1  UNL1       -0.3112
      5 C          19.7119   72.9631   -2.5405 C.3     1  UNL1        0.1811
      6 C          18.4076   70.6628   -4.9786 C.3     1  UNL1        0.2383
      7 C          19.5796   69.8996   -4.3106 C.3     1  UNL1        0.1895
      8 O          19.3308   68.4926   -4.2982 O.3     1  UNL1       -0.3779
      9 C          19.5657   70.4757   -2.8734 C.3     1  UNL1        0.1713
     10 C          18.8163   71.8146   -3.0117 C.3     1  UNL1        0.1764
     11 O          18.4953   71.9838   -4.4016 O.3     1  UNL1       -0.3308
     12 O          18.8642   69.5982   -1.9910 O.3     1  UNL1       -0.3794
     13 H          20.0361   67.9718   -3.8908 H       1  UNL1        0.2106
     14 H          19.2598   68.7197   -1.9122 H       1  UNL1        0.2105
     15 N          18.5905   70.7204   -6.4306 N.ar    1  UNL1       -0.2551
     16 C          17.5351   70.5341   -7.2431 C.ar    1  UNL1        0.3323
     17 N          17.6742   70.5814   -8.5813 N.ar    1  UNL1       -0.2743
     18 C          18.8827   70.8199   -9.1300 C.ar    1  UNL1        0.2626
     19 C          20.0021   71.0188   -8.2866 C.ar    1  UNL1        0.0795
     20 C          19.8329   70.9702   -6.9485 C.ar    1  UNL1        0.0869
     21 O          16.4395   70.3183   -6.7622 O.2     1  UNL1       -0.2464
     22 O          19.0098   70.8634  -10.3410 O.2     1  UNL1       -0.2670
     23 H          16.9030   70.4437   -9.1526 H       1  UNL1        0.1734
     24 O          23.2193   74.0065   -2.1986 O.3     1  UNL1       -0.2703
     25 P          23.8547   73.9983   -3.6781 P.3     1  UNL1        0.2208
     26 O          23.6311   72.5517   -4.3497 O.3     1  UNL1       -0.4371
     27 O          23.1945   75.0325   -4.5046 O.2     1  UNL1       -0.5170
     28 O          25.4318   74.3100   -3.5866 O.3     1  UNL1       -0.2865
     29 C          25.9703   75.6309   -3.6677 C.3     1  UNL1        0.2611
     30 C          27.4870   75.5538   -3.8580 C.3     1  UNL1        0.1582
     31 C          28.1120   74.8709   -2.6375 C.3     1  UNL1        0.1625
     32 C          27.7239   75.6480   -1.3766 C.3     1  UNL1        0.1686
     33 C          26.1976   75.7214   -1.2820 C.3     1  UNL1        0.1760
     34 O          29.5349   74.8604   -2.7731 O.3     1  UNL1       -0.3801
     35 O          28.2628   76.9694   -1.4452 O.3     1  UNL1       -0.3794
     36 O          25.6780   76.3389   -2.4612 O.3     1  UNL1       -0.3263
     37 H          29.9969   74.4412   -2.0342 H       1  UNL1        0.2105
     38 H          28.0549   77.5200   -0.6773 H       1  UNL1        0.2105
     39 C          28.7808   75.1706   -5.8870 C.2     1  UNL1        0.2231
     40 C          29.0932   74.3723   -7.1254 C.3     1  UNL1        0.0946
     41 N          27.7902   74.7768   -5.0625 N.am    1  UNL1       -0.2994
     42 O          29.4210   76.1691   -5.6311 O.2     1  UNL1       -0.2751
     43 H          27.2775   73.9792   -5.2672 H       1  UNL1        0.1496
     44 C          25.8020   76.5475   -0.0566 C.3     1  UNL1        0.1693
     45 O          26.7681   76.3573    0.9792 O.3     1  UNL1       -0.3794
     46 H          26.5806   76.8524    1.7883 H       1  UNL1        0.2105
@<TRIPOS>BOND
     1    29    30    1
     2    30    41    1
     3    30    31    1
     4    31    34    1
     5    31    32    1
     6    32    35    1
     7    32    33    1
     8    33    36    1
     9    33    44    1
    10    39    40    1
    11    39    42    2
    12    39    41   am
    13    41    43    1
    14    29    28    1
    15    34    37    1
    16    35    38    1
    17    29    36    1
    18    44    45    1
    19    45    46    1
    20    15     6    1
    21    15    16   ar
    22    16    21    2
    23    16    17   ar
    24    17    23    1
    25    17    18   ar
    26    18    19   ar
    27    19    20   ar
    28    15    20   ar
    29    18    22    2
    30     6     7    1
    31     6    11    1
    32     7     9    1
    33     7     8    1
    34     8    13    1
    35     9    10    1
    36     9    12    1
    37    10     5    1
    38    10    11    1
    39    12    14    1
    40     5     4    1
    41     4     1    1
    42     1     2    1
    43     1    24    1
    44     1     3    2
    45    24    25    1
    46    28    25    1
    47    25    26    1
    48    25    27    2
@<TRIPOS>MOLECULE
UD2
 46 48 0 0 0
SMALL
GASTEIGER

@<TRIPOS>ATOM
      1 P          19.6890   70.8386   -2.9129 P.3     1  UNL1        0.2189
      2 O          21.0429   70.1005   -3.3748 O.3     1  UNL1       -0.4371
      3 O          18.5793   69.8606   -2.8812 O.2     1  UNL1       -0.5170
      4 O          19.8941   71.4654   -1.4436 O.3     1  UNL1       -0.3112
      5 C          20.5767   72.6993   -1.2134 C.3     1  UNL1        0.1811
      6 C          22.8940   72.3776    1.5184 C.3     1  UNL1        0.2383
      7 C          22.3361   70.9467    1.3101 C.3     1  UNL1        0.1895
      8 O          23.3120   69.9630    1.6589 O.3     1  UNL1       -0.3779
      9 C          22.0514   70.9270   -0.2117 C.3     1  UNL1        0.1713
     10 C          21.9477   72.4156   -0.5947 C.3     1  UNL1        0.1764
     11 O          22.1073   73.1798    0.6111 O.3     1  UNL1       -0.3308
     12 O          23.1288   70.3036   -0.9128 O.3     1  UNL1       -0.3794
     13 H          23.0098   69.0516    1.5461 H       1  UNL1        0.2106
     14 H          23.2772   69.3805   -0.6669 H       1  UNL1        0.2105
     15 N          22.6914   72.8139    2.9017 N.ar    1  UNL1       -0.2551
     16 C          21.5268   72.5491    3.5202 C.ar    1  UNL1        0.3323
     17 N          21.3130   72.9384    4.7910 N.ar    1  UNL1       -0.2743
     18 C          22.2718   73.6029    5.4677 C.ar    1  UNL1        0.2626
     19 C          23.5029   73.8874    4.8293 C.ar    1  UNL1        0.0795
     20 C          23.6915   73.4816    3.5560 C.ar    1  UNL1        0.0869
     21 O          20.6535   71.9506    2.9223 O.2     1  UNL1       -0.2464
     22 O          22.0797   73.9554    6.6180 O.2     1  UNL1       -0.2670
     23 H          20.4671   72.7404    5.2215 H       1  UNL1        0.1734
     24 O          19.3375   72.0162   -3.9536 O.3     1  UNL1       -0.2703
     25 P          19.0194   72.0552   -5.5316 P.3     1  UNL1        0.2208
     26 O          19.3495   70.6188   -6.1809 O.3     1  UNL1       -0.4371
     27 O          17.5896   72.3728   -5.7392 O.2     1  UNL1       -0.5170
     28 O          19.9278   73.1838   -6.2343 O.3     1  UNL1       -0.2865
     29 C          19.5077   73.9142   -7.3882 C.3     1  UNL1        0.2611
     30 C          20.3464   73.4888   -8.5958 C.3     1  UNL1        0.1582
     31 C          21.8151   73.8367   -8.3344 C.3     1  UNL1        0.1625
     32 C          21.9301   75.3362   -8.0470 C.3     1  UNL1        0.1686
     33 C          21.0301   75.6904   -6.8602 C.3     1  UNL1        0.1760
     34 O          22.5952   73.5101   -9.4868 O.3     1  UNL1       -0.3801
     35 O          21.5175   76.0761   -9.1975 O.3     1  UNL1       -0.3794
     36 O          19.6839   75.3132   -7.1561 O.3     1  UNL1       -0.3263
     37 H          23.5378   73.7040   -9.3911 H       1  UNL1        0.2105
     38 H          21.5639   77.0360   -9.0862 H       1  UNL1        0.2105
     39 C          19.3643   71.5693   -9.7309 C.2     1  UNL1        0.2231
     40 C          19.2278   70.0841   -9.9406 C.3     1  UNL1        0.0946
     41 N          20.2141   72.0439   -8.7990 N.am    1  UNL1       -0.2994
     42 O          18.7088   72.3395  -10.4013 O.2     1  UNL1       -0.2751
     43 H          20.7376   71.4285   -8.2621 H       1  UNL1        0.1496
     44 C          21.0934   77.1974   -6.6044 C.3     1  UNL1        0.1693
     45 O          20.1474   77.5497   -5.5928 O.3     1  UNL1       -0.3794
     46 H          20.1324   78.4925   -5.3787 H       1  UNL1        0.2105
@<TRIPOS>BOND
     1    29    30    1
     2    30    41    1
     3    30    31    1
     4    31    34    1
     5    31    32    1
     6    32    35    1
     7    32    33    1
     8    33    36    1
     9    33    44    1
    10    39    40    1
    11    39    42    2
    12    39    41   am
    13    41    43    1
    14    29    28    1
    15    34    37    1
    16    35    38    1
    17    29    36    1
    18    44    45    1
    19    45    46    1
    20    15     6    1
    21    15    16   ar
    22    16    21    2
    23    16    17   ar
    24    17    23    1
    25    17    18   ar
    26    18    19   ar
    27    19    20   ar
    28    15    20   ar
    29    18    22    2
    30     6     7    1
    31     6    11    1
    32     7     9    1
    33     7     8    1
    34     8    13    1
    35     9    10    1
    36     9    12    1
    37    10     5    1
    38    10    11    1
    39    12    14    1
    40     5     4    1
    41     4     1    1
    42     1     2    1
    43     1    24    1
    44     1     3    2
    45    24    25    1
    46    28    25    1
    47    25    26    1
    48    25    27    2
@<TRIPOS>MOLECULE
UD2
 46 48 0 0 0
SMALL
GASTEIGER

@<TRIPOS>ATOM
      1 P          22.2482   70.4209   -0.2188 P.3     1  UNL1        0.2189
      2 O          21.3138   70.8380    1.0239 O.3     1  UNL1       -0.4371
      3 O          23.3487   69.5554    0.2593 O.2     1  UNL1       -0.5170
      4 O          21.3695   69.6209   -1.3058 O.3     1  UNL1       -0.3112
      5 C          21.3225   69.9844   -2.6868 C.3     1  UNL1        0.1811
      6 C          18.6194   70.7519   -4.9319 C.3     1  UNL1        0.2383
      7 C          18.3300   69.3065   -4.4533 C.3     1  UNL1        0.1895
      8 O          16.9244   69.0519   -4.4206 O.3     1  UNL1       -0.3779
      9 C          18.9237   69.3124   -3.0233 C.3     1  UNL1        0.1713
     10 C          19.9193   70.4880   -3.0338 C.3     1  UNL1        0.1764
     11 O          19.9129   71.0424   -4.3590 O.3     1  UNL1       -0.3308
     12 O          17.8954   69.5358   -2.0571 O.3     1  UNL1       -0.3794
     13 H          16.6926   68.1601   -4.1280 H       1  UNL1        0.2106
     14 H          17.2088   68.8554   -2.0478 H       1  UNL1        0.2105
     15 N          18.6779   70.8091   -6.3942 N.ar    1  UNL1       -0.2551
     16 C          17.5415   70.9366   -7.1021 C.ar    1  UNL1        0.3323
     17 N          17.5654   70.9916   -8.4470 N.ar    1  UNL1       -0.2743
     18 C          18.7385   70.9208   -9.1083 C.ar    1  UNL1        0.2626
     19 C          19.9425   70.7874   -8.3758 C.ar    1  UNL1        0.0795
     20 C          19.8892   70.7392   -7.0281 C.ar    1  UNL1        0.0869
     21 O          16.4765   71.0019   -6.5190 O.2     1  UNL1       -0.2464
     22 O          18.7616   70.9708  -10.3255 O.2     1  UNL1       -0.2670
     23 H          16.7367   71.0825   -8.9420 H       1  UNL1        0.1734
     24 O          22.8629   71.7460   -0.8968 O.3     1  UNL1       -0.2703
     25 P          22.8071   73.3145   -0.5370 P.3     1  UNL1        0.2208
     26 O          21.4281   73.9414   -1.0840 O.3     1  UNL1       -0.4371
     27 O          22.8790   73.4872    0.9304 O.2     1  UNL1       -0.5170
     28 O          24.0510   74.0681   -1.2281 O.3     1  UNL1       -0.2865
     29 C          24.0906   75.4821   -1.4287 C.3     1  UNL1        0.2611
     30 C          24.2510   75.7825   -2.9209 C.3     1  UNL1        0.1582
     31 C          25.5838   75.2060   -3.4086 C.3     1  UNL1        0.1625
     32 C          26.7208   75.7987   -2.5717 C.3     1  UNL1        0.1686
     33 C          26.4651   75.4976   -1.0925 C.3     1  UNL1        0.1760
     34 O          25.7759   75.5455   -4.7837 O.3     1  UNL1       -0.3801
     35 O          26.7727   77.2127   -2.7697 O.3     1  UNL1       -0.3794
     36 O          25.1966   76.0338   -0.7112 O.3     1  UNL1       -0.3263
     37 H          26.6019   75.2110   -5.1593 H       1  UNL1        0.2105
     38 H          27.4714   77.6554   -2.2678 H       1  UNL1        0.2105
     39 C          23.3026   73.9410   -4.2043 C.2     1  UNL1        0.2231
     40 C          22.1706   73.3070   -4.9694 C.3     1  UNL1        0.0946
     41 N          23.1496   75.1666   -3.6652 N.am    1  UNL1       -0.2994
     42 O          24.3532   73.3483   -4.0730 O.2     1  UNL1       -0.2751
     43 H          22.3101   75.6412   -3.7708 H       1  UNL1        0.1496
     44 C          27.5656   76.1378   -0.2443 C.3     1  UNL1        0.1693
     45 O          27.3815   75.7781    1.1265 O.3     1  UNL1       -0.3794
     46 H          28.0450   76.1498    1.7237 H       1  UNL1        0.2105
@<TRIPOS>BOND
     1    29    30    1
     2    30    41    1
     3    30    31    1
     4    31    34    1
     5    31    32    1
     6    32    35    1
     7    32    33    1
     8    33    36    1
     9    33    44    1
    10    39    40    1
    11    39    42    2
    12    39    41   am
    13    41    43    1
    14    29    28    1
    15    34    37    1
    16    35    38    1
    17    29    36    1
    18    44    45    1
    19    45    46    1
    20    15     6    1
    21    15    16   ar
    22    16    21    2
    23    16    17   ar
    24    17    23    1
    25    17    18   ar
    26    18    19   ar
    27    19    20   ar
    28    15    20   ar
    29    18    22    2
    30     6     7    1
    31     6    11    1
    32     7     9    1
    33     7     8    1
    34     8    13    1
    35     9    10    1
    36     9    12    1
    37    10     5    1
    38    10    11    1
    39    12    14    1
    40     5     4    1
    41     4     1    1
    42     1     2    1
    43     1    24    1
    44     1     3    2
    45    24    25    1
    46    28    25    1
    47    25    26    1
    48    25    27    2
@<TRIPOS>MOLECULE
UD2
 46 48 0 0 0
SMALL
GASTEIGER

@<TRIPOS>ATOM
      1 P          23.1936   74.4165   -3.7870 P.3     1  UNL1        0.2189
      2 O          24.0675   73.2251   -3.1480 O.3     1  UNL1       -0.4371
      3 O          22.8136   75.3744   -2.7254 O.2     1  UNL1       -0.5170
      4 O          24.0626   75.1766   -4.9098 O.3     1  UNL1       -0.3112
      5 C          24.9677   76.2392   -4.6047 C.3     1  UNL1        0.1811
      6 C          28.3112   74.9988   -4.1368 C.3     1  UNL1        0.2383
      7 C          28.4212   76.5230   -3.8783 C.3     1  UNL1        0.1895
      8 O          29.4492   76.8061   -2.9270 O.3     1  UNL1       -0.3779
      9 C          27.0248   76.8562   -3.2983 C.3     1  UNL1        0.1713
     10 C          26.1323   75.6942   -3.7743 C.3     1  UNL1        0.1764
     11 O          26.9480   74.8319   -4.5834 O.3     1  UNL1       -0.3308
     12 O          27.0743   76.8973   -1.8712 O.3     1  UNL1       -0.3794
     13 H          29.5571   77.7469   -2.7324 H       1  UNL1        0.2106
     14 H          27.6679   77.5729   -1.5167 H       1  UNL1        0.2105
     15 N          29.2509   74.5835   -5.1806 N.ar    1  UNL1       -0.2551
     16 C          30.4501   74.0814   -4.8361 C.ar    1  UNL1        0.3323
     17 N          31.3335   73.6919   -5.7743 N.ar    1  UNL1       -0.2743
     18 C          31.0253   73.7988   -7.0828 C.ar    1  UNL1        0.2626
     19 C          29.7661   74.3246   -7.4596 C.ar    1  UNL1        0.0795
     20 C          28.8982   74.7033   -6.4979 C.ar    1  UNL1        0.0869
     21 O          30.7415   73.9791   -3.6601 O.2     1  UNL1       -0.2464
     22 O          31.8238   73.4463   -7.9329 O.2     1  UNL1       -0.2670
     23 H          32.1943   73.3332   -5.5087 H       1  UNL1        0.1734
     24 O          21.8643   73.8059   -4.4603 O.3     1  UNL1       -0.2703
     25 P          21.4261   73.4830   -5.9758 P.3     1  UNL1        0.2208
     26 O          21.1362   74.8621   -6.7555 O.3     1  UNL1       -0.4371
     27 O          22.5146   72.7503   -6.6589 O.2     1  UNL1       -0.5170
     28 O          20.0930   72.5800   -5.9681 O.3     1  UNL1       -0.2865
     29 C          18.8510   73.0208   -6.5197 C.3     1  UNL1        0.2611
     30 C          17.7136   72.1523   -5.9767 C.3     1  UNL1        0.1582
     31 C          17.9320   70.7031   -6.4221 C.3     1  UNL1        0.1625
     32 C          18.0186   70.6574   -7.9501 C.3     1  UNL1        0.1686
     33 C          19.1446   71.5837   -8.4171 C.3     1  UNL1        0.1760
     34 O          16.8360   69.8981   -5.9815 O.3     1  UNL1       -0.3801
     35 O          16.7787   71.0911   -8.5119 O.3     1  UNL1       -0.3794
     36 O          18.8962   72.9089   -7.9437 O.3     1  UNL1       -0.3263
     37 H          16.9088   68.9660   -6.2287 H       1  UNL1        0.2105
     38 H          16.7620   71.0883   -9.4792 H       1  UNL1        0.2105
     39 C          16.5316   72.2591   -3.8486 C.2     1  UNL1        0.2231
     40 C          16.5200   72.3270   -2.3440 C.3     1  UNL1        0.0946
     41 N          17.7032   72.2186   -4.5132 N.am    1  UNL1       -0.2994
     42 O          15.4855   72.2409   -4.4632 O.2     1  UNL1       -0.2751
     43 H          18.5397   72.2341   -4.0223 H       1  UNL1        0.1496
     44 C          19.1987   71.5896   -9.9460 C.3     1  UNL1        0.1693
     45 O          18.7567   70.3251  -10.4439 O.3     1  UNL1       -0.3794
     46 H          18.7648   70.2569  -11.4084 H       1  UNL1        0.2105
@<TRIPOS>BOND
     1    29    30    1
     2    30    41    1
     3    30    31    1
     4    31    34    1
     5    31    32    1
     6    32    35    1
     7    32    33    1
     8    33    36    1
     9    33    44    1
    10    39    40    1
    11    39    42    2
    12    39    41   am
    13    41    43    1
    14    29    28    1
    15    34    37    1
    16    35    38    1
    17    29    36    1
    18    44    45    1
    19    45    46    1
    20    15     6    1
    21    15    16   ar
    22    16    21    2
    23    16    17   ar
    24    17    23    1
    25    17    18   ar
    26    18    19   ar
    27    19    20   ar
    28    15    20   ar
    29    18    22    2
    30     6     7    1
    31     6    11    1
    32     7     9    1
    33     7     8    1
    34     8    13    1
    35     9    10    1
    36     9    12    1
    37    10     5    1
    38    10    11    1
    39    12    14    1
    40     5     4    1
    41     4     1    1
    42     1     2    1
    43     1    24    1
    44     1     3    2
    45    24    25    1
    46    28    25    1
    47    25    26    1
    48    25    27    2
@<TRIPOS>MOLECULE
UD2
 46 48 0 0 0
SMALL
GASTEIGER

@<TRIPOS>ATOM
      1 P          23.2977   74.1599   -3.9349 P.3     1  UNL1        0.2189
      2 O          23.9840   72.7045   -3.9801 O.3     1  UNL1       -0.4371
      3 O          23.0153   74.5295   -2.5305 O.2     1  UNL1       -0.5170
      4 O          24.2957   75.2440   -4.5849 O.3     1  UNL1       -0.3112
      5 C          25.0299   76.1900   -3.8055 C.3     1  UNL1        0.1811
      6 C          28.3765   74.8784   -3.9337 C.3     1  UNL1        0.2383
      7 C          28.5488   76.3388   -3.4444 C.3     1  UNL1        0.1895
      8 O          29.6835   76.4581   -2.5842 O.3     1  UNL1       -0.3779
      9 C          27.2345   76.5767   -2.6612 C.3     1  UNL1        0.1713
     10 C          26.2684   75.5119   -3.2146 C.3     1  UNL1        0.1764
     11 O          26.9682   74.7918   -4.2418 O.3     1  UNL1       -0.3308
     12 O          27.4455   76.3823   -1.2618 O.3     1  UNL1       -0.3794
     13 H          29.8336   77.3537   -2.2525 H       1  UNL1        0.2106
     14 H          28.0902   76.9883   -0.8725 H       1  UNL1        0.2105
     15 N          29.1830   74.6373   -5.1322 N.ar    1  UNL1       -0.2551
     16 C          30.4185   74.1201   -5.0110 C.ar    1  UNL1        0.3323
     17 N          31.1820   73.8883   -6.0953 N.ar    1  UNL1       -0.2743
     18 C          30.7143   74.1720   -7.3279 C.ar    1  UNL1        0.2626
     19 C          29.4150   74.7159   -7.4702 C.ar    1  UNL1        0.0795
     20 C          28.6699   74.9340   -6.3662 C.ar    1  UNL1        0.0869
     21 O          30.8531   73.8592   -3.9058 O.2     1  UNL1       -0.2464
     22 O          31.4041   73.9624   -8.3101 O.2     1  UNL1       -0.2670
     23 H          32.0711   73.5161   -5.9900 H       1  UNL1        0.1734
     24 O          21.9210   74.1306   -4.7698 O.3     1  UNL1       -0.2703
     25 P          21.2945   73.1218   -5.8574 P.3     1  UNL1        0.2208
     26 O          20.3091   73.9351   -6.8379 O.3     1  UNL1       -0.4371
     27 O          22.3843   72.5113   -6.6498 O.2     1  UNL1       -0.5170
     28 O          20.4666   71.9655   -5.1023 O.3     1  UNL1       -0.2865
     29 C          19.2124   72.1993   -4.4592 C.3     1  UNL1        0.2611
     30 C          19.0877   71.2885   -3.2355 C.3     1  UNL1        0.1582
     31 C          19.1102   69.8269   -3.6933 C.3     1  UNL1        0.1625
     32 C          17.9806   69.6016   -4.7020 C.3     1  UNL1        0.1686
     33 C          18.1481   70.5777   -5.8696 C.3     1  UNL1        0.1760
     34 O          18.9205   68.9704   -2.5647 O.3     1  UNL1       -0.3801
     35 O          16.7209   69.8275   -4.0669 O.3     1  UNL1       -0.3794
     36 O          18.1496   71.9173   -5.3720 O.3     1  UNL1       -0.3263
     37 H          18.9245   68.0280   -2.7816 H       1  UNL1        0.2105
     38 H          15.9583   69.7030   -4.6490 H       1  UNL1        0.2105
     39 C          21.3165   70.7685   -2.3990 C.2     1  UNL1        0.2231
     40 C          22.4707   71.0206   -1.4648 C.3     1  UNL1        0.0946
     41 N          20.2099   71.5342   -2.3262 N.am    1  UNL1       -0.2994
     42 O          21.3825   69.8755   -3.2178 O.2     1  UNL1       -0.2751
     43 H          20.1563   72.2476   -1.6711 H       1  UNL1        0.1496
     44 C          16.9898   70.3998   -6.8529 C.3     1  UNL1        0.1693
     45 O          17.4651   70.5832   -8.1882 O.3     1  UNL1       -0.3794
     46 H          16.7827   70.4847   -8.8662 H       1  UNL1        0.2105
@<TRIPOS>BOND
     1    29    30    1
     2    30    41    1
     3    30    31    1
     4    31    34    1
     5    31    32    1
     6    32    35    1
     7    32    33    1
     8    33    36    1
     9    33    44    1
    10    39    40    1
    11    39    42    2
    12    39    41   am
    13    41    43    1
    14    29    28    1
    15    34    37    1
    16    35    38    1
    17    29    36    1
    18    44    45    1
    19    45    46    1
    20    15     6    1
    21    15    16   ar
    22    16    21    2
    23    16    17   ar
    24    17    23    1
    25    17    18   ar
    26    18    19   ar
    27    19    20   ar
    28    15    20   ar
    29    18    22    2
    30     6     7    1
    31     6    11    1
    32     7     9    1
    33     7     8    1
    34     8    13    1
    35     9    10    1
    36     9    12    1
    37    10     5    1
    38    10    11    1
    39    12    14    1
    40     5     4    1
    41     4     1    1
    42     1     2    1
    43     1    24    1
    44     1     3    2
    45    24    25    1
    46    28    25    1
    47    25    26    1
    48    25    27    2
@<TRIPOS>MOLECULE
UD2
 46 48 0 0 0
SMALL
GASTEIGER

@<TRIPOS>ATOM
      1 P          20.0278   74.6372   -3.4700 P.3     1  UNL1        0.2189
      2 O          19.3870   73.3763   -2.7013 O.3     1  UNL1       -0.4371
      3 O          18.9711   75.3427   -4.2280 O.2     1  UNL1       -0.5170
      4 O          20.6816   75.6442   -2.3966 O.3     1  UNL1       -0.3112
      5 C          19.9245   76.2776   -1.3637 C.3     1  UNL1        0.1811
      6 C          21.5310   74.0291    0.9385 C.3     1  UNL1        0.2383
      7 C          22.6851   74.8902    0.3653 C.3     1  UNL1        0.1895
      8 O          23.7282   75.0514    1.3286 O.3     1  UNL1       -0.3779
      9 C          21.9773   76.2389    0.0868 C.3     1  UNL1        0.1713
     10 C          20.4840   75.8698    0.0015 C.3     1  UNL1        0.1764
     11 O          20.3851   74.4460    0.1647 O.3     1  UNL1       -0.3308
     12 O          22.2064   77.1535    1.1599 O.3     1  UNL1       -0.3794
     13 H          24.4734   75.5825    1.0166 H       1  UNL1        0.2106
     14 H          23.1373   77.3751    1.2969 H       1  UNL1        0.2105
     15 N          21.8006   72.6040    0.7349 N.ar    1  UNL1       -0.2551
     16 C          22.3770   71.8880    1.7167 C.ar    1  UNL1        0.3323
     17 N          22.6365   70.5767    1.5570 N.ar    1  UNL1       -0.2743
     18 C          22.3180   69.9575    0.4022 C.ar    1  UNL1        0.2626
     19 C          21.7098   70.6988   -0.6392 C.ar    1  UNL1        0.0795
     20 C          21.4573   72.0110   -0.4502 C.ar    1  UNL1        0.0869
     21 O          22.6695   72.4332    2.7634 O.2     1  UNL1       -0.2464
     22 O          22.5519   68.7706    0.2566 O.2     1  UNL1       -0.2670
     23 H          23.0538   70.0755    2.2746 H       1  UNL1        0.1734
     24 O          21.1665   74.1243   -4.4866 O.3     1  UNL1       -0.2703
     25 P          21.4812   72.7114   -5.1920 P.3     1  UNL1        0.2208
     26 O          22.3530   72.9592   -6.5233 O.3     1  UNL1       -0.4371
     27 O          22.2413   71.8519   -4.2583 O.2     1  UNL1       -0.5170
     28 O          20.0974   71.9870   -5.5833 O.3     1  UNL1       -0.2865
     29 C          19.0175   72.6668   -6.2259 C.3     1  UNL1        0.2611
     30 C          17.6974   71.9766   -5.8740 C.3     1  UNL1        0.1582
     31 C          17.7247   70.5402   -6.4054 C.3     1  UNL1        0.1625
     32 C          17.9796   70.5704   -7.9148 C.3     1  UNL1        0.1686
     33 C          19.2892   71.3149   -8.1880 C.3     1  UNL1        0.1760
     34 O          16.4676   69.9113   -6.1458 O.3     1  UNL1       -0.3801
     35 O          16.9017   71.2435   -8.5679 O.3     1  UNL1       -0.3794
     36 O          19.2089   72.6329   -7.6417 O.3     1  UNL1       -0.3263
     37 H          16.4143   68.9969   -6.4557 H       1  UNL1        0.2105
     38 H          16.9974   71.3006   -9.5289 H       1  UNL1        0.2105
     39 C          16.3168   72.1952   -3.8780 C.2     1  UNL1        0.2231
     40 C          16.1418   72.1753   -2.3822 C.3     1  UNL1        0.0946
     41 N          17.5280   71.9573   -4.4189 N.am    1  UNL1       -0.2994
     42 O          15.3670   72.4256   -4.5971 O.2     1  UNL1       -0.2751
     43 H          18.2878   71.7740   -3.8443 H       1  UNL1        0.1496
     44 C          19.5209   71.4016   -9.6978 C.3     1  UNL1        0.1693
     45 O          18.6642   72.4003  -10.2554 O.3     1  UNL1       -0.3794
     46 H          18.7574   72.5100  -11.2116 H       1  UNL1        0.2105
@<TRIPOS>BOND
     1    29    30    1
     2    30    41    1
     3    30    31    1
     4    31    34    1
     5    31    32    1
     6    32    35    1
     7    32    33    1
     8    33    36    1
     9    33    44    1
    10    39    40    1
    11    39    42    2
    12    39    41   am
    13    41    43    1
    14    29    28    1
    15    34    37    1
    16    35    38    1
    17    29    36    1
    18    44    45    1
    19    45    46    1
    20    15     6    1
    21    15    16   ar
    22    16    21    2
    23    16    17   ar
    24    17    23    1
    25    17    18   ar
    26    18    19   ar
    27    19    20   ar
    28    15    20   ar
    29    18    22    2
    30     6     7    1
    31     6    11    1
    32     7     9    1
    33     7     8    1
    34     8    13    1
    35     9    10    1
    36     9    12    1
    37    10     5    1
    38    10    11    1
    39    12    14    1
    40     5     4    1
    41     4     1    1
    42     1     2    1
    43     1    24    1
    44     1     3    2
    45    24    25    1
    46    28    25    1
    47    25    26    1
    48    25    27    2
