@<TRIPOS>MOLECULE
*****
 43 45 0 0 0
SMALL
GASTEIGER

@<TRIPOS>ATOM
      1 P          22.9778   71.7100   -2.7515 P.3     1  UNL1        0.2189
      2 O          23.8130   73.0209   -3.2002 O.co2   1  UNL1       -0.4371
      3 O          23.5482   70.4038   -3.2206 O.2     1  UNL1       -0.5170
      4 O          21.4661   72.0294   -3.2317 O.3     1  UNL1       -0.3112
      5 C          20.6104   70.9425   -3.5389 C.3     1  UNL1        0.1811
      6 O          18.7506   71.9531   -4.6763 O.3     1  UNL1       -0.3308
      7 O          17.0378   70.8115   -2.4959 O.3     1  UNL1       -0.3794
      8 O          16.6384   69.0574   -4.5454 O.3     1  UNL1       -0.3779
      9 C          18.1969   70.2574   -3.1162 C.3     1  UNL1        0.1713
     10 C          17.8626   69.7622   -4.5078 C.3     1  UNL1        0.1895
     11 C          19.1636   71.3983   -3.4082 C.3     1  UNL1        0.1764
     12 C          17.8161   71.0575   -5.3004 C.3     1  UNL1        0.2383
     13 H          16.4058   70.1016   -2.2995 H       1  UNL1        0.2105
     14 H          16.7188   68.2416   -4.0270 H       1  UNL1        0.2106
     15 O          16.0017   70.4993   -7.3919 O.2     1  UNL1       -0.2464
     16 O          19.3749   70.3684  -10.5296 O.2     1  UNL1       -0.2670
     17 N          18.1929   70.8732   -6.6736 N.ar    1  UNL1       -0.2551
     18 N          17.6828   70.4348   -8.9526 N.ar    1  UNL1       -0.2743
     19 C          17.2041   70.5958   -7.6461 C.ar    1  UNL1        0.3323
     20 C          19.5299   70.9683   -7.0440 C.ar    1  UNL1        0.0869
     21 C          19.9701   70.8108   -8.2941 C.ar    1  UNL1        0.0795
     22 C          19.0015   70.5185   -9.3704 C.ar    1  UNL1        0.2626
     23 H          17.0120   70.2404   -9.6469 H       1  UNL1        0.1734
     24 O          22.8897   71.8674   -1.1451 O.3     1  UNL1       -0.2703
     25 P          22.4223   70.8260   -0.0005 P.3     1  UNL1        0.2208
     26 O          23.6592   69.7865    0.0829 O.co2   1  UNL1       -0.4371
     27 O          21.0902   70.1840   -0.2595 O.2     1  UNL1       -0.5170
     28 O          22.5033   71.6671    1.3747 O.3     1  UNL1       -0.2858
     29 O          21.4390   72.2596    3.4076 O.3     1  UNL1       -0.3258
     30 O          21.0424   75.8391    1.3875 O.3     1  UNL1       -0.3794
     31 O          22.9159   75.6339    3.5545 O.3     1  UNL1       -0.3794
     32 O          20.7437   73.3366   -0.0366 O.3     1  UNL1       -0.3775
     33 C          21.6905   74.6220    1.7670 C.3     1  UNL1        0.1715
     34 C          21.9203   74.6524    3.2793 C.3     1  UNL1        0.1694
     35 C          20.8007   73.4416    1.3820 C.3     1  UNL1        0.1967
     36 C          22.3657   73.2791    3.7996 C.3     1  UNL1        0.1761
     37 C          21.3051   72.1319    1.9907 C.3     1  UNL1        0.2704
     38 H          21.6024   76.5926    1.6287 H       1  UNL1        0.2105
     39 H          22.6225   76.4963    3.2205 H       1  UNL1        0.2105
     40 H          20.4227   74.1718   -0.4098 H       1  UNL1        0.2106
     41 O          21.1325   73.2062    5.8448 O.3     1  UNL1       -0.3794
     42 C          22.4484   73.2444    5.3241 C.3     1  UNL1        0.1693
     43 H          21.1695   73.1835    6.8142 H       1  UNL1        0.2105
@<TRIPOS>UNITY_ATOM_ATTR
2 1
charge -1
26 1
charge -1
@<TRIPOS>BOND
     1    25    28    1
     2    25    24    1
     3    25    26    1
     4    25    27    2
     5     1     4    1
     6     1    24    1
     7     1     2    1
     8     1     3    2
     9     6    11    1
    10     6    12    1
    11    29    36    1
    12    29    37    1
    13     7     9    1
    14     7    13    1
    15     8    10    1
    16     8    14    1
    17    28    37    1
    18     4     5    1
    19    30    33    1
    20    30    38    1
    21    31    34    1
    22    31    39    1
    23    32    35    1
    24    32    40    1
    25    41    42    1
    26    41    43    1
    27    15    19    2
    28    16    22    2
    29    17    12    1
    30    17    19   ar
    31    17    20   ar
    32    18    19   ar
    33    18    22   ar
    34    18    23    1
    35     9    10    1
    36     9    11    1
    37    10    12    1
    38    11     5    1
    39    33    34    1
    40    33    35    1
    41    34    36    1
    42    35    37    1
    43    36    42    1
    44    20    21   ar
    45    21    22   ar
@<TRIPOS>MOLECULE
*****
 43 45 0 0 0
SMALL
GASTEIGER

@<TRIPOS>ATOM
      1 P          22.8123   71.7929   -2.2523 P.3     1  UNL1        0.2189
      2 O          23.4326   73.2837   -2.3535 O.co2   1  UNL1       -0.4371
      3 O          23.4058   70.7938   -3.2016 O.2     1  UNL1       -0.5170
      4 O          21.2168   72.0262   -2.3848 O.3     1  UNL1       -0.3112
      5 C          20.5472   71.4947   -3.5148 C.3     1  UNL1        0.1811
      6 O          18.5943   72.2600   -4.6871 O.3     1  UNL1       -0.3308
      7 O          17.0056   71.0290   -2.4619 O.3     1  UNL1       -0.3794
      8 O          16.7978   69.1656   -4.4422 O.3     1  UNL1       -0.3779
      9 C          18.2180   70.5764   -3.0624 C.3     1  UNL1        0.1713
     10 C          17.9411   69.9960   -4.4335 C.3     1  UNL1        0.1895
     11 C          19.0602   71.8006   -3.3994 C.3     1  UNL1        0.1764
     12 C          17.7607   71.2480   -5.2751 C.3     1  UNL1        0.2383
     13 H          16.4512   70.2646   -2.2375 H       1  UNL1        0.2105
     14 H          16.9621   68.3832   -3.8931 H       1  UNL1        0.2106
     15 O          16.0359   70.3574   -7.3268 O.2     1  UNL1       -0.2464
     16 O          19.3953   70.5306  -10.4772 O.2     1  UNL1       -0.2670
     17 N          18.1581   71.0520   -6.6407 N.ar    1  UNL1       -0.2551
     18 N          17.7100   70.4445   -8.8938 N.ar    1  UNL1       -0.2743
     19 C          17.2146   70.6008   -7.5930 C.ar    1  UNL1        0.3323
     20 C          19.4704   71.3067   -7.0239 C.ar    1  UNL1        0.0869
     21 C          19.9272   71.1514   -8.2683 C.ar    1  UNL1        0.0795
     22 C          19.0057   70.6834   -9.3237 C.ar    1  UNL1        0.2626
     23 H          17.0708   70.1308   -9.5741 H       1  UNL1        0.1734
     24 O          22.9975   71.4275   -0.6886 O.3     1  UNL1       -0.2703
     25 P          22.0722   70.5634    0.3164 P.3     1  UNL1        0.2208
     26 O          23.1417   69.9245    1.3486 O.co2   1  UNL1       -0.4371
     27 O          21.1943   69.5561   -0.3681 O.2     1  UNL1       -0.5170
     28 O          21.2745   71.6647    1.1858 O.3     1  UNL1       -0.2858
     29 O          21.6535   74.0040    1.2081 O.3     1  UNL1       -0.3258
     30 O          20.3703   73.5065    5.1012 O.3     1  UNL1       -0.3794
     31 O          18.6459   74.7829    3.1920 O.3     1  UNL1       -0.3794
     32 O          22.0666   71.5078    3.8734 O.3     1  UNL1       -0.3775
     33 C          20.4035   73.2411    3.6963 C.3     1  UNL1        0.1715
     34 C          20.0275   74.5264    2.9564 C.3     1  UNL1        0.1694
     35 C          21.8095   72.7882    3.3069 C.3     1  UNL1        0.1967
     36 C          20.2982   74.3986    1.4513 C.3     1  UNL1        0.1761
     37 C          21.9876   72.7416    1.7883 C.3     1  UNL1        0.2704
     38 H          19.4801   73.7940    5.3551 H       1  UNL1        0.2105
     39 H          18.4883   74.8609    4.1461 H       1  UNL1        0.2105
     40 H          21.9508   71.5506    4.8350 H       1  UNL1        0.2106
     41 O          20.0231   76.7616    1.6732 O.3     1  UNL1       -0.3794
     42 C          20.0795   75.7194    0.7167 C.3     1  UNL1        0.1693
     43 H          19.8845   77.6085    1.2200 H       1  UNL1        0.2105
@<TRIPOS>UNITY_ATOM_ATTR
2 1
charge -1
26 1
charge -1
@<TRIPOS>BOND
     1    25    28    1
     2    25    24    1
     3    25    26    1
     4    25    27    2
     5     1     4    1
     6     1    24    1
     7     1     2    1
     8     1     3    2
     9     6    11    1
    10     6    12    1
    11    29    36    1
    12    29    37    1
    13     7     9    1
    14     7    13    1
    15     8    10    1
    16     8    14    1
    17    28    37    1
    18     4     5    1
    19    30    33    1
    20    30    38    1
    21    31    34    1
    22    31    39    1
    23    32    35    1
    24    32    40    1
    25    41    42    1
    26    41    43    1
    27    15    19    2
    28    16    22    2
    29    17    12    1
    30    17    19   ar
    31    17    20   ar
    32    18    19   ar
    33    18    22   ar
    34    18    23    1
    35     9    10    1
    36     9    11    1
    37    10    12    1
    38    11     5    1
    39    33    34    1
    40    33    35    1
    41    34    36    1
    42    35    37    1
    43    36    42    1
    44    20    21   ar
    45    21    22   ar
@<TRIPOS>MOLECULE
*****
 43 45 0 0 0
SMALL
GASTEIGER

@<TRIPOS>ATOM
      1 P          21.8822   73.6878   -5.9495 P.3     1  UNL1        0.2189
      2 O          22.2056   75.2716   -5.8829 O.co2   1  UNL1       -0.4371
      3 O          22.7981   72.8905   -6.8309 O.2     1  UNL1       -0.5170
      4 O          20.3112   73.6279   -6.3318 O.3     1  UNL1       -0.3112
      5 C          19.8587   74.3704   -7.4506 C.3     1  UNL1        0.1811
      6 O          19.6082   72.0591   -8.0579 O.3     1  UNL1       -0.3308
      7 O          17.9255   73.0348  -10.3398 O.3     1  UNL1       -0.3794
      8 O          16.0568   72.2008   -8.5373 O.3     1  UNL1       -0.3779
      9 C          18.0269   73.5444   -9.0111 C.3     1  UNL1        0.1713
     10 C          17.3082   72.6302   -8.0410 C.3     1  UNL1        0.1895
     11 C          19.4769   73.4053   -8.5646 C.3     1  UNL1        0.1764
     12 C          18.2999   71.4892   -7.8897 C.3     1  UNL1        0.2383
     13 H          17.0082   73.1133  -10.6469 H       1  UNL1        0.2105
     14 H          15.4613   72.9623   -8.6157 H       1  UNL1        0.2106
     15 O          16.1056   69.9609   -6.9801 O.2     1  UNL1       -0.2464
     16 O          18.1222   69.1475   -2.9164 O.2     1  UNL1       -0.2670
     17 N          18.2251   70.8661   -6.5984 N.ar    1  UNL1       -0.2551
     18 N          17.1116   69.5570   -4.9575 N.ar    1  UNL1       -0.2743
     19 C          17.0778   70.1210   -6.2392 C.ar    1  UNL1        0.3323
     20 C          19.2817   70.9967   -5.7037 C.ar    1  UNL1        0.0869
     21 C          19.2978   70.4536   -4.4847 C.ar    1  UNL1        0.0795
     22 C          18.1376   69.6594   -4.0315 C.ar    1  UNL1        0.2626
     23 H          16.3229   69.0338   -4.6853 H       1  UNL1        0.1734
     24 O          21.8947   73.2486   -4.3939 O.3     1  UNL1       -0.2703
     25 P          23.0981   72.7320   -3.4464 P.3     1  UNL1        0.2208
     26 O          24.3476   73.6561   -3.8965 O.co2   1  UNL1       -0.4371
     27 O          23.3576   71.2558   -3.5309 O.2     1  UNL1       -0.5170
     28 O          22.7116   73.2598   -1.9709 O.3     1  UNL1       -0.2858
     29 O          21.6631   71.6166   -0.6229 O.3     1  UNL1       -0.3258
     30 O          20.9034   74.9512    1.6910 O.3     1  UNL1       -0.3794
     31 O          22.8524   73.0321    2.5663 O.3     1  UNL1       -0.3794
     32 O          20.7748   75.1365   -1.1949 O.3     1  UNL1       -0.3775
     33 C          21.6636   74.1270    0.8032 C.3     1  UNL1        0.1715
     34 C          21.9358   72.7934    1.5018 C.3     1  UNL1        0.1694
     35 C          20.8657   73.9083   -0.4809 C.3     1  UNL1        0.1967
     36 C          22.5115   71.7621    0.5220 C.3     1  UNL1        0.1761
     37 C          21.4975   72.8286   -1.3614 C.3     1  UNL1        0.2704
     38 H          21.4046   75.0944    2.5082 H       1  UNL1        0.2105
     39 H          22.4771   73.6853    3.1775 H       1  UNL1        0.2105
     40 H          20.3730   75.8116   -0.6269 H       1  UNL1        0.2106
     41 O          21.6873   69.5199    0.5659 O.3     1  UNL1       -0.3794
     42 C          22.6431   70.3801    1.1582 C.3     1  UNL1        0.1693
     43 H          21.7596   68.6364    0.9609 H       1  UNL1        0.2105
@<TRIPOS>UNITY_ATOM_ATTR
2 1
charge -1
26 1
charge -1
@<TRIPOS>BOND
     1    25    28    1
     2    25    24    1
     3    25    26    1
     4    25    27    2
     5     1     4    1
     6     1    24    1
     7     1     2    1
     8     1     3    2
     9     6    11    1
    10     6    12    1
    11    29    36    1
    12    29    37    1
    13     7     9    1
    14     7    13    1
    15     8    10    1
    16     8    14    1
    17    28    37    1
    18     4     5    1
    19    30    33    1
    20    30    38    1
    21    31    34    1
    22    31    39    1
    23    32    35    1
    24    32    40    1
    25    41    42    1
    26    41    43    1
    27    15    19    2
    28    16    22    2
    29    17    12    1
    30    17    19   ar
    31    17    20   ar
    32    18    19   ar
    33    18    22   ar
    34    18    23    1
    35     9    10    1
    36     9    11    1
    37    10    12    1
    38    11     5    1
    39    33    34    1
    40    33    35    1
    41    34    36    1
    42    35    37    1
    43    36    42    1
    44    20    21   ar
    45    21    22   ar
@<TRIPOS>MOLECULE
*****
 43 45 0 0 0
SMALL
GASTEIGER

@<TRIPOS>ATOM
      1 P          22.6671   71.2103   -1.9787 P.3     1  UNL1        0.2189
      2 O          23.3804   70.7971   -3.3707 O.co2   1  UNL1       -0.4371
      3 O          23.2997   70.6329   -0.7466 O.2     1  UNL1       -0.5170
      4 O          21.1112   70.8328   -2.2125 O.3     1  UNL1       -0.3112
      5 C          20.5682   70.9786   -3.5131 C.3     1  UNL1        0.1811
      6 O          18.7182   71.9880   -4.6674 O.3     1  UNL1       -0.3308
      7 O          16.9838   70.8280   -2.5140 O.3     1  UNL1       -0.3794
      8 O          16.6162   69.0835   -4.5775 O.3     1  UNL1       -0.3779
      9 C          18.1525   70.2818   -3.1232 C.3     1  UNL1        0.1713
     10 C          17.8370   69.7928   -4.5214 C.3     1  UNL1        0.1895
     11 C          19.1181   71.4280   -3.3974 C.3     1  UNL1        0.1764
     12 C          17.7949   71.0922   -5.3076 C.3     1  UNL1        0.2383
     13 H          16.3523   70.1146   -2.3291 H       1  UNL1        0.2105
     14 H          16.6935   68.2652   -4.0626 H       1  UNL1        0.2106
     15 O          16.0219   70.4395   -7.4071 O.2     1  UNL1       -0.2464
     16 O          19.4187   70.4426  -10.5220 O.2     1  UNL1       -0.2670
     17 N          18.1889   70.9168   -6.6770 N.ar    1  UNL1       -0.2551
     18 N          17.7146   70.4417   -8.9564 N.ar    1  UNL1       -0.2743
     19 C          17.2203   70.5888   -7.6541 C.ar    1  UNL1        0.3323
     20 C          19.5227   71.0702   -7.0394 C.ar    1  UNL1        0.0869
     21 C          19.9781   70.9253   -8.2856 C.ar    1  UNL1        0.0795
     22 C          19.0310   70.5828   -9.3662 C.ar    1  UNL1        0.2626
     23 H          17.0581   70.2129   -9.6538 H       1  UNL1        0.1734
     24 O          22.6619   72.8257   -2.0383 O.3     1  UNL1       -0.2703
     25 P          23.1445   73.8468   -3.1948 P.3     1  UNL1        0.2208
     26 O          24.1687   72.9546   -4.0738 O.co2   1  UNL1       -0.4371
     27 O          23.7276   75.1302   -2.6784 O.2     1  UNL1       -0.5170
     28 O          21.8505   74.0330   -4.1413 O.3     1  UNL1       -0.2858
     29 O          22.3360   75.8587   -5.5723 O.3     1  UNL1       -0.3258
     30 O          18.5140   74.9967   -6.8761 O.3     1  UNL1       -0.3794
     31 O          20.7609   74.3471   -8.5426 O.3     1  UNL1       -0.3794
     32 O          19.1552   74.8102   -4.0594 O.3     1  UNL1       -0.3775
     33 C          19.8179   74.6946   -6.3722 C.3     1  UNL1        0.1715
     34 C          20.8504   75.1813   -7.3910 C.3     1  UNL1        0.1694
     35 C          20.0110   75.4010   -5.0316 C.3     1  UNL1        0.1967
     36 C          22.2689   75.1358   -6.8071 C.3     1  UNL1        0.1761
     37 C          21.4664   75.3386   -4.5648 C.3     1  UNL1        0.2704
     38 H          18.3848   74.5508   -7.7269 H       1  UNL1        0.2105
     39 H          19.8602   74.3844   -8.9013 H       1  UNL1        0.2105
     40 H          18.2369   74.8563   -4.3665 H       1  UNL1        0.2106
     41 O          22.6066   76.5459   -8.7062 O.3     1  UNL1       -0.3794
     42 C          23.2950   75.7635   -7.7479 C.3     1  UNL1        0.1693
     43 H          23.2471   76.9519   -9.3116 H       1  UNL1        0.2105
@<TRIPOS>UNITY_ATOM_ATTR
2 1
charge -1
26 1
charge -1
@<TRIPOS>BOND
     1    25    28    1
     2    25    24    1
     3    25    26    1
     4    25    27    2
     5     1     4    1
     6     1    24    1
     7     1     2    1
     8     1     3    2
     9     6    11    1
    10     6    12    1
    11    29    36    1
    12    29    37    1
    13     7     9    1
    14     7    13    1
    15     8    10    1
    16     8    14    1
    17    28    37    1
    18     4     5    1
    19    30    33    1
    20    30    38    1
    21    31    34    1
    22    31    39    1
    23    32    35    1
    24    32    40    1
    25    41    42    1
    26    41    43    1
    27    15    19    2
    28    16    22    2
    29    17    12    1
    30    17    19   ar
    31    17    20   ar
    32    18    19   ar
    33    18    22   ar
    34    18    23    1
    35     9    10    1
    36     9    11    1
    37    10    12    1
    38    11     5    1
    39    33    34    1
    40    33    35    1
    41    34    36    1
    42    35    37    1
    43    36    42    1
    44    20    21   ar
    45    21    22   ar
@<TRIPOS>MOLECULE
*****
 43 45 0 0 0
SMALL
GASTEIGER

@<TRIPOS>ATOM
      1 P          21.6629   70.8695   -1.1020 P.3     1  UNL1        0.2189
      2 O          23.2416   70.6404   -0.8330 O.co2   1  UNL1       -0.4371
      3 O          20.7955   69.6731   -0.8422 O.2     1  UNL1       -0.5170
      4 O          21.6074   71.4644   -2.6057 O.3     1  UNL1       -0.3112
      5 C          20.7569   70.8374   -3.5498 C.3     1  UNL1        0.1811
      6 O          18.9497   71.9791   -4.6473 O.3     1  UNL1       -0.3308
      7 O          17.2029   70.9414   -2.4421 O.3     1  UNL1       -0.3794
      8 O          16.6489   69.2322   -4.4934 O.3     1  UNL1       -0.3779
      9 C          18.3105   70.3143   -3.0866 C.3     1  UNL1        0.1713
     10 C          17.9185   69.8522   -4.4745 C.3     1  UNL1        0.1895
     11 C          19.3468   71.3892   -3.3901 C.3     1  UNL1        0.1764
     12 C          17.9456   71.1529   -5.2591 C.3     1  UNL1        0.2383
     13 H          16.5279   70.2746   -2.2380 H       1  UNL1        0.2105
     14 H          16.6831   68.4093   -3.9811 H       1  UNL1        0.2106
     15 O          16.0874   70.4778   -7.2763 O.2     1  UNL1       -0.2464
     16 O          19.3588   70.4081  -10.5219 O.2     1  UNL1       -0.2670
     17 N          18.2843   70.9527   -6.6399 N.ar    1  UNL1       -0.2551
     18 N          17.7178   70.4438   -8.8908 N.ar    1  UNL1       -0.2743
     19 C          17.2761   70.6153   -7.5726 C.ar    1  UNL1        0.3323
     20 C          19.6037   71.0915   -7.0569 C.ar    1  UNL1        0.0869
     21 C          20.0087   70.9234   -8.3174 C.ar    1  UNL1        0.0795
     22 C          19.0178   70.5695   -9.3542 C.ar    1  UNL1        0.2626
     23 H          17.0329   70.2080   -9.5579 H       1  UNL1        0.1734
     24 O          21.3219   72.1588   -0.1885 O.3     1  UNL1       -0.2703
     25 P          21.9966   73.6266   -0.1298 P.3     1  UNL1        0.2208
     26 O          20.8674   74.5805   -0.7874 O.co2   1  UNL1       -0.4371
     27 O          23.3416   73.7125   -0.7911 O.2     1  UNL1       -0.5170
     28 O          21.9956   74.0142    1.4370 O.3     1  UNL1       -0.2858
     29 O          23.8694   74.0765    2.8866 O.3     1  UNL1       -0.3258
     30 O          20.9608   73.0028    5.6139 O.3     1  UNL1       -0.3794
     31 O          22.0485   75.6601    5.6732 O.3     1  UNL1       -0.3794
     32 O          20.9031   71.9076    2.9349 O.3     1  UNL1       -0.3775
     33 C          21.4858   73.6740    4.4653 C.3     1  UNL1        0.1715
     34 C          22.6206   74.5922    4.9233 C.3     1  UNL1        0.1694
     35 C          22.0028   72.6344    3.4726 C.3     1  UNL1        0.1967
     36 C          23.4066   75.1416    3.7252 C.3     1  UNL1        0.1761
     37 C          22.8118   73.2815    2.3471 C.3     1  UNL1        0.2704
     38 H          20.6304   73.6573    6.2480 H       1  UNL1        0.2105
     39 H          21.5547   75.2997    6.4265 H       1  UNL1        0.2105
     40 H          20.3992   71.5026    3.6573 H       1  UNL1        0.2106
     41 O          25.0524   75.4535    5.4290 O.3     1  UNL1       -0.3794
     42 C          24.6377   75.9321    4.1627 C.3     1  UNL1        0.1693
     43 H          25.8354   75.9473    5.7200 H       1  UNL1        0.2105
@<TRIPOS>UNITY_ATOM_ATTR
2 1
charge -1
26 1
charge -1
@<TRIPOS>BOND
     1    25    28    1
     2    25    24    1
     3    25    26    1
     4    25    27    2
     5     1     4    1
     6     1    24    1
     7     1     2    1
     8     1     3    2
     9     6    11    1
    10     6    12    1
    11    29    36    1
    12    29    37    1
    13     7     9    1
    14     7    13    1
    15     8    10    1
    16     8    14    1
    17    28    37    1
    18     4     5    1
    19    30    33    1
    20    30    38    1
    21    31    34    1
    22    31    39    1
    23    32    35    1
    24    32    40    1
    25    41    42    1
    26    41    43    1
    27    15    19    2
    28    16    22    2
    29    17    12    1
    30    17    19   ar
    31    17    20   ar
    32    18    19   ar
    33    18    22   ar
    34    18    23    1
    35     9    10    1
    36     9    11    1
    37    10    12    1
    38    11     5    1
    39    33    34    1
    40    33    35    1
    41    34    36    1
    42    35    37    1
    43    36    42    1
    44    20    21   ar
    45    21    22   ar
@<TRIPOS>MOLECULE
*****
 43 45 0 0 0
SMALL
GASTEIGER

@<TRIPOS>ATOM
      1 P          22.6674   71.1774   -1.8987 P.3     1  UNL1        0.2189
      2 O          23.1964   70.5793   -3.3058 O.co2   1  UNL1       -0.4371
      3 O          23.1599   70.4565   -0.6784 O.2     1  UNL1       -0.5170
      4 O          21.0606   71.2343   -2.0805 O.3     1  UNL1       -0.3112
      5 C          20.5311   71.3169   -3.3922 C.3     1  UNL1        0.1811
      6 O          18.6572   72.2077   -4.6042 O.3     1  UNL1       -0.3308
      7 O          16.9427   71.0546   -2.4312 O.3     1  UNL1       -0.3794
      8 O          16.6741   69.2241   -4.4347 O.3     1  UNL1       -0.3779
      9 C          18.1407   70.5356   -3.0063 C.3     1  UNL1        0.1713
     10 C          17.8642   69.9846   -4.3897 C.3     1  UNL1        0.1895
     11 C          19.0625   71.7101   -3.3102 C.3     1  UNL1        0.1764
     12 C          17.7798   71.2524   -5.2226 C.3     1  UNL1        0.2383
     13 H          16.3383   70.3228   -2.2283 H       1  UNL1        0.2105
     14 H          16.7778   68.4286   -3.8897 H       1  UNL1        0.2106
     15 O          16.0799   70.3769   -7.3015 O.2     1  UNL1       -0.2464
     16 O          19.4978   70.4891  -10.3913 O.2     1  UNL1       -0.2670
     17 N          18.1990   71.0447   -6.5800 N.ar    1  UNL1       -0.2551
     18 N          17.7831   70.4337   -8.8384 N.ar    1  UNL1       -0.2743
     19 C          17.2666   70.6027   -7.5473 C.ar    1  UNL1        0.3323
     20 C          19.5215   71.2793   -6.9405 C.ar    1  UNL1        0.0869
     21 C          19.9984   71.1121   -8.1757 C.ar    1  UNL1        0.0795
     22 C          19.0896   70.6524   -9.2457 C.ar    1  UNL1        0.2626
     23 H          17.1519   70.1259   -9.5288 H       1  UNL1        0.1734
     24 O          23.0976   72.7334   -1.9804 O.3     1  UNL1       -0.2703
     25 P          23.4258   73.6788   -3.2498 P.3     1  UNL1        0.2208
     26 O          22.0666   74.5367   -3.4348 O.co2   1  UNL1       -0.4371
     27 O          23.8585   72.9316   -4.4780 O.2     1  UNL1       -0.5170
     28 O          24.5072   74.7424   -2.6983 O.3     1  UNL1       -0.2858
     29 O          25.3216   75.6815   -4.7161 O.3     1  UNL1       -0.3258
     30 O          27.2808   78.1163   -2.0171 O.3     1  UNL1       -0.3794
     31 O          25.0897   79.1695   -3.5461 O.3     1  UNL1       -0.3794
     32 O          26.9577   75.2965   -1.4479 O.3     1  UNL1       -0.3775
     33 C          26.1975   77.3217   -2.5073 C.3     1  UNL1        0.1715
     34 C          25.7211   77.9242   -3.8305 C.3     1  UNL1        0.1694
     35 C          26.6832   75.8881   -2.7133 C.3     1  UNL1        0.1967
     36 C          24.7455   76.9822   -4.5487 C.3     1  UNL1        0.1761
     37 C          25.6589   75.0494   -3.4797 C.3     1  UNL1        0.2704
     38 H          26.9789   79.0277   -1.8837 H       1  UNL1        0.2105
     39 H          25.7163   79.7549   -3.0922 H       1  UNL1        0.2105
     40 H          27.6075   75.8367   -0.9727 H       1  UNL1        0.2106
     41 O          25.3149   78.4860   -6.3160 O.3     1  UNL1       -0.3794
     42 C          24.3802   77.4908   -5.9416 C.3     1  UNL1        0.1693
     43 H          25.0950   78.8188   -7.2007 H       1  UNL1        0.2105
@<TRIPOS>UNITY_ATOM_ATTR
2 1
charge -1
26 1
charge -1
@<TRIPOS>BOND
     1    25    28    1
     2    25    24    1
     3    25    26    1
     4    25    27    2
     5     1     4    1
     6     1    24    1
     7     1     2    1
     8     1     3    2
     9     6    11    1
    10     6    12    1
    11    29    36    1
    12    29    37    1
    13     7     9    1
    14     7    13    1
    15     8    10    1
    16     8    14    1
    17    28    37    1
    18     4     5    1
    19    30    33    1
    20    30    38    1
    21    31    34    1
    22    31    39    1
    23    32    35    1
    24    32    40    1
    25    41    42    1
    26    41    43    1
    27    15    19    2
    28    16    22    2
    29    17    12    1
    30    17    19   ar
    31    17    20   ar
    32    18    19   ar
    33    18    22   ar
    34    18    23    1
    35     9    10    1
    36     9    11    1
    37    10    12    1
    38    11     5    1
    39    33    34    1
    40    33    35    1
    41    34    36    1
    42    35    37    1
    43    36    42    1
    44    20    21   ar
    45    21    22   ar
@<TRIPOS>MOLECULE
*****
 43 45 0 0 0
SMALL
GASTEIGER

@<TRIPOS>ATOM
      1 P          22.7293   71.5135   -2.0433 P.3     1  UNL1        0.2189
      2 O          23.3133   70.7314   -3.3335 O.co2   1  UNL1       -0.4371
      3 O          23.3608   71.1380   -0.7351 O.2     1  UNL1       -0.5170
      4 O          21.1303   71.2866   -2.1424 O.3     1  UNL1       -0.3112
      5 C          20.5429   71.1656   -3.4262 C.3     1  UNL1        0.1811
      6 O          18.7241   72.1462   -4.6525 O.3     1  UNL1       -0.3308
      7 O          16.9395   71.0840   -2.4897 O.3     1  UNL1       -0.3794
      8 O          16.5937   69.2655   -4.4922 O.3     1  UNL1       -0.3779
      9 C          18.1141   70.5050   -3.0557 C.3     1  UNL1        0.1713
     10 C          17.8199   69.9659   -4.4401 C.3     1  UNL1        0.1895
     11 C          19.0952   71.6315   -3.3550 C.3     1  UNL1        0.1764
     12 C          17.8044   71.2347   -5.2756 C.3     1  UNL1        0.2383
     13 H          16.2980   70.3837   -2.2898 H       1  UNL1        0.2105
     14 H          16.6539   68.4668   -3.9453 H       1  UNL1        0.2106
     15 O          16.0826   70.4134   -7.3585 O.2     1  UNL1       -0.2464
     16 O          19.5173   70.3785  -10.4314 O.2     1  UNL1       -0.2670
     17 N          18.2220   71.0038   -6.6297 N.ar    1  UNL1       -0.2551
     18 N          17.7942   70.3969   -8.8869 N.ar    1  UNL1       -0.2743
     19 C          17.2782   70.5924   -7.5994 C.ar    1  UNL1        0.3323
     20 C          19.5543   71.1858   -6.9847 C.ar    1  UNL1        0.0869
     21 C          20.0305   70.9939   -8.2166 C.ar    1  UNL1        0.0795
     22 C          19.1100   70.5634   -9.2887 C.ar    1  UNL1        0.2626
     23 H          17.1551   70.1097   -9.5789 H       1  UNL1        0.1734
     24 O          22.9016   73.0680   -2.4519 O.3     1  UNL1       -0.2703
     25 P          23.4777   73.7544   -3.7973 P.3     1  UNL1        0.2208
     26 O          23.0433   72.7156   -4.9591 O.co2   1  UNL1       -0.4371
     27 O          24.9479   74.0553   -3.7536 O.2     1  UNL1       -0.5170
     28 O          22.5375   75.0451   -4.0321 O.3     1  UNL1       -0.2858
     29 O          21.9876   76.2232   -2.0507 O.3     1  UNL1       -0.3258
     30 O          26.0687   75.8967   -1.5131 O.3     1  UNL1       -0.3794
     31 O          24.2953   74.3093    0.0942 O.3     1  UNL1       -0.3794
     32 O          24.9955   76.3935   -4.1552 O.3     1  UNL1       -0.3775
     33 C          24.7727   75.4701   -1.9418 C.3     1  UNL1        0.1715
     34 C          23.8611   75.3987   -0.7152 C.3     1  UNL1        0.1694
     35 C          24.2285   76.4719   -2.9585 C.3     1  UNL1        0.1967
     36 C          22.3946   75.2085   -1.1252 C.3     1  UNL1        0.1761
     37 C          22.7493   76.2239   -3.2597 C.3     1  UNL1        0.2704
     38 H          26.4201   75.2647   -0.8677 H       1  UNL1        0.2105
     39 H          25.2229   74.4414    0.3458 H       1  UNL1        0.2105
     40 H          25.9298   76.5526   -3.9513 H       1  UNL1        0.2106
     41 O          22.1119   75.9792    1.1187 O.3     1  UNL1       -0.3794
     42 C          21.4505   75.2924    0.0722 C.3     1  UNL1        0.1693
     43 H          21.5228   76.0404    1.8875 H       1  UNL1        0.2105
@<TRIPOS>UNITY_ATOM_ATTR
2 1
charge -1
26 1
charge -1
@<TRIPOS>BOND
     1    25    28    1
     2    25    24    1
     3    25    26    1
     4    25    27    2
     5     1     4    1
     6     1    24    1
     7     1     2    1
     8     1     3    2
     9     6    11    1
    10     6    12    1
    11    29    36    1
    12    29    37    1
    13     7     9    1
    14     7    13    1
    15     8    10    1
    16     8    14    1
    17    28    37    1
    18     4     5    1
    19    30    33    1
    20    30    38    1
    21    31    34    1
    22    31    39    1
    23    32    35    1
    24    32    40    1
    25    41    42    1
    26    41    43    1
    27    15    19    2
    28    16    22    2
    29    17    12    1
    30    17    19   ar
    31    17    20   ar
    32    18    19   ar
    33    18    22   ar
    34    18    23    1
    35     9    10    1
    36     9    11    1
    37    10    12    1
    38    11     5    1
    39    33    34    1
    40    33    35    1
    41    34    36    1
    42    35    37    1
    43    36    42    1
    44    20    21   ar
    45    21    22   ar
@<TRIPOS>MOLECULE
*****
 43 45 0 0 0
SMALL
GASTEIGER

@<TRIPOS>ATOM
      1 P          22.4180   73.2609   -4.2038 P.3     1  UNL1        0.2189
      2 O          22.1927   74.5849   -5.1059 O.co2   1  UNL1       -0.4371
      3 O          23.7620   72.6113   -4.3564 O.2     1  UNL1       -0.5170
      4 O          21.1432   72.3291   -4.5564 O.3     1  UNL1       -0.3112
      5 C          20.5902   71.5234   -3.5303 C.3     1  UNL1        0.1811
      6 O          18.6260   72.2801   -4.6892 O.3     1  UNL1       -0.3308
      7 O          17.0597   71.0790   -2.4320 O.3     1  UNL1       -0.3794
      8 O          16.8248   69.1933   -4.3880 O.3     1  UNL1       -0.3779
      9 C          18.2641   70.6164   -3.0408 C.3     1  UNL1        0.1713
     10 C          17.9702   70.0209   -4.4019 C.3     1  UNL1        0.1895
     11 C          19.1054   71.8344   -3.4015 C.3     1  UNL1        0.1764
     12 C          17.7833   71.2634   -5.2558 C.3     1  UNL1        0.2383
     13 H          16.5060   70.3187   -2.1925 H       1  UNL1        0.2105
     14 H          16.9935   68.4169   -3.8317 H       1  UNL1        0.2106
     15 O          16.0277   70.3751   -7.2823 O.2     1  UNL1       -0.2464
     16 O          19.3574   70.4804  -10.4672 O.2     1  UNL1       -0.2670
     17 N          18.1647   71.0505   -6.6235 N.ar    1  UNL1       -0.2551
     18 N          17.6870   70.4284   -8.8666 N.ar    1  UNL1       -0.2743
     19 C          17.2065   70.6022   -7.5623 C.ar    1  UNL1        0.3323
     20 C          19.4761   71.2862   -7.0220 C.ar    1  UNL1        0.0869
     21 C          19.9186   71.1144   -8.2693 C.ar    1  UNL1        0.0795
     22 C          18.9811   70.6480   -9.3113 C.ar    1  UNL1        0.2626
     23 H          17.0374   70.1163   -9.5376 H       1  UNL1        0.1734
     24 O          22.0871   73.7790   -2.7089 O.3     1  UNL1       -0.2703
     25 P          22.9363   74.7088   -1.6953 P.3     1  UNL1        0.2208
     26 O          22.3737   76.1956   -1.9960 O.co2   1  UNL1       -0.4371
     27 O          24.4247   74.5701   -1.8338 O.2     1  UNL1       -0.5170
     28 O          22.3641   74.3449   -0.2306 O.3     1  UNL1       -0.2858
     29 O          21.6119   72.1130    0.0329 O.3     1  UNL1       -0.3258
     30 O          19.9172   73.7833    3.4077 O.3     1  UNL1       -0.3794
     31 O          22.1746   72.0281    3.6750 O.3     1  UNL1       -0.3794
     32 O          19.9906   75.2855    0.9344 O.3     1  UNL1       -0.3775
     33 C          20.9175   73.6137    2.3997 C.3     1  UNL1        0.1715
     34 C          21.4292   72.1735    2.4694 C.3     1  UNL1        0.1694
     35 C          20.3010   73.8996    1.0316 C.3     1  UNL1        0.1967
     36 C          22.3058   71.8377    1.2554 C.3     1  UNL1        0.1761
     37 C          21.2348   73.4843   -0.1066 C.3     1  UNL1        0.2704
     38 H          20.3023   73.6037    4.2789 H       1  UNL1        0.2105
     39 H          21.6098   72.2435    4.4338 H       1  UNL1        0.2105
     40 H          19.3987   75.5359    1.6602 H       1  UNL1        0.2106
     41 O          21.6733   69.6395    0.5651 O.3     1  UNL1       -0.3794
     42 C          22.6974   70.3620    1.2234 C.3     1  UNL1        0.1693
     43 H          21.9091   68.6985    0.5370 H       1  UNL1        0.2105
@<TRIPOS>UNITY_ATOM_ATTR
2 1
charge -1
26 1
charge -1
@<TRIPOS>BOND
     1    25    28    1
     2    25    24    1
     3    25    26    1
     4    25    27    2
     5     1     4    1
     6     1    24    1
     7     1     2    1
     8     1     3    2
     9     6    11    1
    10     6    12    1
    11    29    36    1
    12    29    37    1
    13     7     9    1
    14     7    13    1
    15     8    10    1
    16     8    14    1
    17    28    37    1
    18     4     5    1
    19    30    33    1
    20    30    38    1
    21    31    34    1
    22    31    39    1
    23    32    35    1
    24    32    40    1
    25    41    42    1
    26    41    43    1
    27    15    19    2
    28    16    22    2
    29    17    12    1
    30    17    19   ar
    31    17    20   ar
    32    18    19   ar
    33    18    22   ar
    34    18    23    1
    35     9    10    1
    36     9    11    1
    37    10    12    1
    38    11     5    1
    39    33    34    1
    40    33    35    1
    41    34    36    1
    42    35    37    1
    43    36    42    1
    44    20    21   ar
    45    21    22   ar
@<TRIPOS>MOLECULE
*****
 43 45 0 0 0
SMALL
GASTEIGER

@<TRIPOS>ATOM
      1 P          22.6177   73.4060   -4.1406 P.3     1  UNL1        0.2189
      2 O          22.5530   74.0051   -5.6420 O.co2   1  UNL1       -0.4371
      3 O          23.5255   72.2237   -3.9686 O.2     1  UNL1       -0.5170
      4 O          21.0660   73.1627   -3.7523 O.3     1  UNL1       -0.3112
      5 C          20.5742   71.8339   -3.7326 C.3     1  UNL1        0.1811
      6 O          18.4715   72.1732   -4.8448 O.3     1  UNL1       -0.3308
      7 O          17.2211   70.7775   -2.5040 O.3     1  UNL1       -0.3794
      8 O          17.2881   68.8172   -4.3985 O.3     1  UNL1       -0.3779
      9 C          18.4732   70.5270   -3.1402 C.3     1  UNL1        0.1713
     10 C          18.2577   69.8423   -4.4738 C.3     1  UNL1        0.1895
     11 C          19.0616   71.8675   -3.5624 C.3     1  UNL1        0.1764
     12 C          17.8180   70.9994   -5.3547 C.3     1  UNL1        0.2383
     13 H          16.8262   69.9360   -2.2252 H       1  UNL1        0.2105
     14 H          17.6144   68.1045   -3.8271 H       1  UNL1        0.2106
     15 O          16.0054   70.4177   -7.4413 O.2     1  UNL1       -0.2464
     16 O          19.3737   70.3143  -10.5853 O.2     1  UNL1       -0.2670
     17 N          18.1940   70.8158   -6.7281 N.ar    1  UNL1       -0.2551
     18 N          17.6840   70.3669   -9.0051 N.ar    1  UNL1       -0.2743
     19 C          17.2062   70.5259   -7.6980 C.ar    1  UNL1        0.3323
     20 C          19.5292   70.9238   -7.1014 C.ar    1  UNL1        0.0869
     21 C          19.9687   70.7680   -8.3520 C.ar    1  UNL1        0.0795
     22 C          19.0010   70.4632   -9.4257 C.ar    1  UNL1        0.2626
     23 H          17.0139   70.1640   -9.6976 H       1  UNL1        0.1734
     24 O          23.0169   74.6956   -3.2515 O.3     1  UNL1       -0.2703
     25 P          22.4840   75.1975   -1.8103 P.3     1  UNL1        0.2208
     26 O          21.0537   75.8695   -2.1571 O.co2   1  UNL1       -0.4371
     27 O          23.4347   76.1048   -1.0846 O.2     1  UNL1       -0.5170
     28 O          22.1155   73.8416   -1.0162 O.3     1  UNL1       -0.2858
     29 O          23.4502   73.5934    0.9264 O.3     1  UNL1       -0.3258
     30 O          21.6504   69.8772    0.8831 O.3     1  UNL1       -0.3794
     31 O          20.8600   71.8126    2.8523 O.3     1  UNL1       -0.3794
     32 O          22.4589   71.1191   -1.6036 O.3     1  UNL1       -0.3775
     33 C          21.7244   71.2915    0.6838 C.3     1  UNL1        0.1715
     34 C          22.0174   71.9512    2.0328 C.3     1  UNL1        0.1694
     35 C          22.8371   71.5970   -0.3171 C.3     1  UNL1        0.1967
     36 C          22.3744   73.4335    1.8586 C.3     1  UNL1        0.1761
     37 C          23.1471   73.0938   -0.3776 C.3     1  UNL1        0.2704
     38 H          20.9454   69.6764    1.5173 H       1  UNL1        0.2105
     39 H          20.6451   70.8721    2.9539 H       1  UNL1        0.2105
     40 H          22.2656   70.1705   -1.5520 H       1  UNL1        0.2106
     41 O          23.8448   75.0103    2.8886 O.3     1  UNL1       -0.3794
     42 C          22.8231   74.0719    3.1713 C.3     1  UNL1        0.1693
     43 H          24.1400   75.4247    3.7149 H       1  UNL1        0.2105
@<TRIPOS>UNITY_ATOM_ATTR
2 1
charge -1
26 1
charge -1
@<TRIPOS>BOND
     1    25    28    1
     2    25    24    1
     3    25    26    1
     4    25    27    2
     5     1     4    1
     6     1    24    1
     7     1     2    1
     8     1     3    2
     9     6    11    1
    10     6    12    1
    11    29    36    1
    12    29    37    1
    13     7     9    1
    14     7    13    1
    15     8    10    1
    16     8    14    1
    17    28    37    1
    18     4     5    1
    19    30    33    1
    20    30    38    1
    21    31    34    1
    22    31    39    1
    23    32    35    1
    24    32    40    1
    25    41    42    1
    26    41    43    1
    27    15    19    2
    28    16    22    2
    29    17    12    1
    30    17    19   ar
    31    17    20   ar
    32    18    19   ar
    33    18    22   ar
    34    18    23    1
    35     9    10    1
    36     9    11    1
    37    10    12    1
    38    11     5    1
    39    33    34    1
    40    33    35    1
    41    34    36    1
    42    35    37    1
    43    36    42    1
    44    20    21   ar
    45    21    22   ar
@<TRIPOS>MOLECULE
*****
 43 45 0 0 0
SMALL
GASTEIGER

@<TRIPOS>ATOM
      1 P          20.1928   70.5449   -3.1310 P.3     1  UNL1        0.2189
      2 O          19.8099   69.8354   -4.5336 O.co2   1  UNL1       -0.4371
      3 O          20.6139   69.6053   -2.0396 O.2     1  UNL1       -0.5170
      4 O          18.9093   71.4735   -2.8023 O.3     1  UNL1       -0.3112
      5 C          17.8885   71.5862   -3.7786 C.3     1  UNL1        0.1811
      6 O          18.5092   73.2888   -5.3565 O.3     1  UNL1       -0.3308
      7 O          16.1549   74.8358   -4.3295 O.3     1  UNL1       -0.3794
      8 O          15.2054   73.7860   -6.6604 O.3     1  UNL1       -0.3779
      9 C          16.2973   73.4288   -4.5177 C.3     1  UNL1        0.1713
     10 C          16.2350   73.0864   -5.9916 C.3     1  UNL1        0.1895
     11 C          17.7302   73.0507   -4.1636 C.3     1  UNL1        0.1764
     12 C          17.6203   73.4893   -6.4675 C.3     1  UNL1        0.2383
     13 H          15.2475   75.1009   -4.5492 H       1  UNL1        0.2105
     14 H          14.3441   73.4947   -6.3227 H       1  UNL1        0.2106
     15 O          17.9304   74.4557   -9.1034 O.2     1  UNL1       -0.2464
     16 O          19.3569   70.3500  -10.6363 O.2     1  UNL1       -0.2670
     17 N          18.0716   72.6947   -7.5750 N.ar    1  UNL1       -0.2551
     18 N          18.6406   72.4106   -9.8645 N.ar    1  UNL1       -0.2743
     19 C          18.1919   73.2761   -8.8587 C.ar    1  UNL1        0.3323
     20 C          18.3897   71.3547   -7.3823 C.ar    1  UNL1        0.0869
     21 C          18.8150   70.5425   -8.3523 C.ar    1  UNL1        0.0795
     22 C          18.9681   71.0714   -9.7230 C.ar    1  UNL1        0.2626
     23 H          18.7317   72.7936  -10.7672 H       1  UNL1        0.1734
     24 O          21.3187   71.6212   -3.5636 O.3     1  UNL1       -0.2703
     25 P          22.8877   71.7247   -3.1890 P.3     1  UNL1        0.2208
     26 O          23.4662   72.7536   -4.2956 O.co2   1  UNL1       -0.4371
     27 O          23.5976   70.4027   -3.1417 O.2     1  UNL1       -0.5170
     28 O          22.9233   72.5530   -1.8042 O.3     1  UNL1       -0.2858
     29 O          21.2058   72.8319   -0.1952 O.3     1  UNL1       -0.3258
     30 O          23.0130   76.5312    0.1209 O.3     1  UNL1       -0.3794
     31 O          23.3417   74.6079    2.2282 O.3     1  UNL1       -0.3794
     32 O          22.7434   75.2727   -2.4720 O.3     1  UNL1       -0.3775
     33 C          22.9682   75.1158   -0.0791 C.3     1  UNL1        0.1715
     34 C          22.3856   74.4717    1.1805 C.3     1  UNL1        0.1694
     35 C          22.0928   74.8106   -1.2931 C.3     1  UNL1        0.1967
     36 C          22.0583   72.9911    0.9448 C.3     1  UNL1        0.1761
     37 C          21.7869   73.3162   -1.4075 C.3     1  UNL1        0.2704
     38 H          23.5677   76.7318    0.8900 H       1  UNL1        0.2105
     39 H          23.5399   75.5474    2.3665 H       1  UNL1        0.2105
     40 H          22.9313   76.2200   -2.3873 H       1  UNL1        0.2106
     41 O          20.7144   73.4061    2.8763 O.3     1  UNL1       -0.3794
     42 C          21.3315   72.3695    2.1355 C.3     1  UNL1        0.1693
     43 H          20.2477   73.0252    3.6372 H       1  UNL1        0.2105
@<TRIPOS>UNITY_ATOM_ATTR
2 1
charge -1
26 1
charge -1
@<TRIPOS>BOND
     1    25    28    1
     2    25    24    1
     3    25    26    1
     4    25    27    2
     5     1     4    1
     6     1    24    1
     7     1     2    1
     8     1     3    2
     9     6    11    1
    10     6    12    1
    11    29    36    1
    12    29    37    1
    13     7     9    1
    14     7    13    1
    15     8    10    1
    16     8    14    1
    17    28    37    1
    18     4     5    1
    19    30    33    1
    20    30    38    1
    21    31    34    1
    22    31    39    1
    23    32    35    1
    24    32    40    1
    25    41    42    1
    26    41    43    1
    27    15    19    2
    28    16    22    2
    29    17    12    1
    30    17    19   ar
    31    17    20   ar
    32    18    19   ar
    33    18    22   ar
    34    18    23    1
    35     9    10    1
    36     9    11    1
    37    10    12    1
    38    11     5    1
    39    33    34    1
    40    33    35    1
    41    34    36    1
    42    35    37    1
    43    36    42    1
    44    20    21   ar
    45    21    22   ar
@<TRIPOS>MOLECULE
*****
 43 45 0 0 0
SMALL
GASTEIGER

@<TRIPOS>ATOM
      1 P          21.4196   72.9980   -5.9794 P.3     1  UNL1        0.2189
      2 O          20.1448   73.8215   -5.4190 O.co2   1  UNL1       -0.4371
      3 O          22.5687   73.8456   -6.4405 O.2     1  UNL1       -0.5170
      4 O          20.7849   72.0094   -7.0919 O.3     1  UNL1       -0.3112
      5 C          19.7146   71.1622   -6.7118 C.3     1  UNL1        0.1811
      6 O          17.5097   70.9156   -7.6345 O.3     1  UNL1       -0.3308
      7 O          18.8281   71.0148  -10.3258 O.3     1  UNL1       -0.3794
      8 O          17.8414   73.5424  -10.0538 O.3     1  UNL1       -0.3779
      9 C          19.1611   71.7205   -9.1315 C.3     1  UNL1        0.1713
     10 C          18.1582   72.8265   -8.8774 C.3     1  UNL1        0.1895
     11 C          18.9133   70.7891   -7.9515 C.3     1  UNL1        0.1764
     12 C          16.9716   72.0551   -8.3251 C.3     1  UNL1        0.2383
     13 H          18.9786   71.5894  -11.0933 H       1  UNL1        0.2105
     14 H          18.6281   74.0162  -10.3658 H       1  UNL1        0.2106
     15 O          14.9531   73.8787   -9.0854 O.2     1  UNL1       -0.2464
     16 O          14.0503   74.9885   -4.7043 O.2     1  UNL1       -0.2670
     17 N          16.1929   72.8337   -7.4038 N.ar    1  UNL1       -0.2551
     18 N          14.5051   74.4297   -6.9033 N.ar    1  UNL1       -0.2743
     19 C          15.2043   73.7213   -7.8888 C.ar    1  UNL1        0.3323
     20 C          16.4127   72.7128   -6.0359 C.ar    1  UNL1        0.0869
     21 C          15.7382   73.3965   -5.1092 C.ar    1  UNL1        0.0795
     22 C          14.6879   74.3451   -5.5321 C.ar    1  UNL1        0.2626
     23 H          13.8118   75.0543   -7.2178 H       1  UNL1        0.1734
     24 O          21.7695   71.9959   -4.7602 O.3     1  UNL1       -0.2703
     25 P          22.6991   72.1982   -3.4533 P.3     1  UNL1        0.2208
     26 O          23.9825   72.9963   -4.0308 O.co2   1  UNL1       -0.4371
     27 O          23.0346   70.9240   -2.7337 O.2     1  UNL1       -0.5170
     28 O          21.9124   73.2855   -2.5568 O.3     1  UNL1       -0.2858
     29 O          19.7585   72.3976   -2.1222 O.3     1  UNL1       -0.3258
     30 O          22.0557   69.4229   -0.4121 O.3     1  UNL1       -0.3794
     31 O          20.7002   68.9180   -2.8931 O.3     1  UNL1       -0.3794
     32 O          22.8517   72.1936   -0.1483 O.3     1  UNL1       -0.3775
     33 C          21.7409   70.4387   -1.3683 C.3     1  UNL1        0.1715
     34 C          20.4375   70.0504   -2.0691 C.3     1  UNL1        0.1694
     35 C          21.5847   71.7747   -0.6443 C.3     1  UNL1        0.1967
     36 C          19.8953   71.2115   -2.9134 C.3     1  UNL1        0.1761
     37 C          20.9927   72.8476   -1.5600 C.3     1  UNL1        0.2704
     38 H          22.1567   68.5722   -0.8654 H       1  UNL1        0.2105
     39 H          21.0424   68.1923   -2.3479 H       1  UNL1        0.2105
     40 H          23.2157   71.5060    0.4301 H       1  UNL1        0.2106
     41 O          17.8938   69.9281   -2.6771 O.3     1  UNL1       -0.3794
     42 C          18.5174   70.9014   -3.4944 C.3     1  UNL1        0.1693
     43 H          17.0157   69.7211   -3.0347 H       1  UNL1        0.2105
@<TRIPOS>UNITY_ATOM_ATTR
2 1
charge -1
26 1
charge -1
@<TRIPOS>BOND
     1    25    28    1
     2    25    24    1
     3    25    26    1
     4    25    27    2
     5     1     4    1
     6     1    24    1
     7     1     2    1
     8     1     3    2
     9     6    11    1
    10     6    12    1
    11    29    36    1
    12    29    37    1
    13     7     9    1
    14     7    13    1
    15     8    10    1
    16     8    14    1
    17    28    37    1
    18     4     5    1
    19    30    33    1
    20    30    38    1
    21    31    34    1
    22    31    39    1
    23    32    35    1
    24    32    40    1
    25    41    42    1
    26    41    43    1
    27    15    19    2
    28    16    22    2
    29    17    12    1
    30    17    19   ar
    31    17    20   ar
    32    18    19   ar
    33    18    22   ar
    34    18    23    1
    35     9    10    1
    36     9    11    1
    37    10    12    1
    38    11     5    1
    39    33    34    1
    40    33    35    1
    41    34    36    1
    42    35    37    1
    43    36    42    1
    44    20    21   ar
    45    21    22   ar
@<TRIPOS>MOLECULE
*****
 43 45 0 0 0
SMALL
GASTEIGER

@<TRIPOS>ATOM
      1 P          19.5307   69.6036   -3.1821 P.3     1  UNL1        0.2189
      2 O          19.3176   68.0487   -3.5749 O.co2   1  UNL1       -0.4371
      3 O          19.1568   69.9582   -1.7729 O.2     1  UNL1       -0.5170
      4 O          18.7413   70.4090   -4.3423 O.3     1  UNL1       -0.3112
      5 C          17.6040   71.1731   -3.9810 C.3     1  UNL1        0.1811
      6 O          18.8463   72.7747   -5.2714 O.3     1  UNL1       -0.3308
      7 O          16.9568   74.8347   -4.1865 O.3     1  UNL1       -0.3794
      8 O          15.9760   74.3894   -6.6918 O.3     1  UNL1       -0.3779
      9 C          16.7003   73.4809   -4.5560 C.3     1  UNL1        0.1713
     10 C          16.6858   73.3411   -6.0639 C.3     1  UNL1        0.1895
     11 C          17.9185   72.6506   -4.1713 C.3     1  UNL1        0.1764
     12 C          18.1682   73.3577   -6.3962 C.3     1  UNL1        0.2383
     13 H          16.1924   75.3844   -4.4221 H       1  UNL1        0.2105
     14 H          15.0384   74.3357   -6.4494 H       1  UNL1        0.2106
     15 O          18.0563   74.3702   -9.0306 O.2     1  UNL1       -0.2464
     16 O          19.3628   70.3346  -10.8327 O.2     1  UNL1       -0.2670
     17 N          18.4744   72.5936   -7.5726 N.ar    1  UNL1       -0.2551
     18 N          18.7071   72.3600   -9.9258 N.ar    1  UNL1       -0.2743
     19 C          18.3863   73.1964   -8.8490 C.ar    1  UNL1        0.3323
     20 C          18.8574   71.2620   -7.4538 C.ar    1  UNL1        0.0869
     21 C          19.1588   70.4776   -8.4906 C.ar    1  UNL1        0.0795
     22 C          19.0918   71.0303   -9.8589 C.ar    1  UNL1        0.2626
     23 H          18.6524   72.7583  -10.8248 H       1  UNL1        0.1734
     24 O          21.0828   69.8625   -3.5518 O.3     1  UNL1       -0.2703
     25 P          22.1252   70.9833   -3.0321 P.3     1  UNL1        0.2208
     26 O          21.6444   72.3226   -3.8020 O.co2   1  UNL1       -0.4371
     27 O          23.5680   70.6291   -3.2480 O.2     1  UNL1       -0.5170
     28 O          21.7213   71.2328   -1.4895 O.3     1  UNL1       -0.2858
     29 O          23.2231   72.7859   -0.5153 O.3     1  UNL1       -0.3258
     30 O          21.0983   71.7165    2.8600 O.3     1  UNL1       -0.3794
     31 O          20.6968   74.3103    1.6944 O.3     1  UNL1       -0.3794
     32 O          21.7527   69.7168    0.8719 O.3     1  UNL1       -0.3775
     33 C          21.2794   72.0014    1.4703 C.3     1  UNL1        0.1715
     34 C          21.7702   73.4443    1.3365 C.3     1  UNL1        0.1694
     35 C          22.3049   71.0288    0.8908 C.3     1  UNL1        0.1967
     36 C          22.2403   73.7391   -0.0943 C.3     1  UNL1        0.1761
     37 C          22.7416   71.4405   -0.5163 C.3     1  UNL1        0.2704
     38 H          20.4480   72.3303    3.2339 H       1  UNL1        0.2105
     39 H          20.4090   74.1135    2.5997 H       1  UNL1        0.2105
     40 H          21.4804   69.4678    1.7684 H       1  UNL1        0.2106
     41 O          24.2777   74.9577   -0.3642 O.3     1  UNL1       -0.3794
     42 C          22.8796   75.1209   -0.2129 C.3     1  UNL1        0.1693
     43 H          24.6979   75.8291   -0.4412 H       1  UNL1        0.2105
@<TRIPOS>UNITY_ATOM_ATTR
2 1
charge -1
26 1
charge -1
@<TRIPOS>BOND
     1    25    28    1
     2    25    24    1
     3    25    26    1
     4    25    27    2
     5     1     4    1
     6     1    24    1
     7     1     2    1
     8     1     3    2
     9     6    11    1
    10     6    12    1
    11    29    36    1
    12    29    37    1
    13     7     9    1
    14     7    13    1
    15     8    10    1
    16     8    14    1
    17    28    37    1
    18     4     5    1
    19    30    33    1
    20    30    38    1
    21    31    34    1
    22    31    39    1
    23    32    35    1
    24    32    40    1
    25    41    42    1
    26    41    43    1
    27    15    19    2
    28    16    22    2
    29    17    12    1
    30    17    19   ar
    31    17    20   ar
    32    18    19   ar
    33    18    22   ar
    34    18    23    1
    35     9    10    1
    36     9    11    1
    37    10    12    1
    38    11     5    1
    39    33    34    1
    40    33    35    1
    41    34    36    1
    42    35    37    1
    43    36    42    1
    44    20    21   ar
    45    21    22   ar
@<TRIPOS>MOLECULE
*****
 43 45 0 0 0
SMALL
GASTEIGER

@<TRIPOS>ATOM
      1 P          17.5694   72.4574   -2.6870 P.3     1  UNL1        0.2189
      2 O          17.2600   73.4930   -1.4832 O.co2   1  UNL1       -0.4371
      3 O          16.9373   71.1048   -2.5376 O.2     1  UNL1       -0.5170
      4 O          19.1831   72.4696   -2.8048 O.3     1  UNL1       -0.3112
      5 C          19.9463   72.0805   -1.6761 C.3     1  UNL1        0.1811
      6 O          22.1101   73.0156   -1.2097 O.3     1  UNL1       -0.3308
      7 O          23.2395   70.6459   -2.6588 O.3     1  UNL1       -0.3794
      8 O          23.5744   69.9572   -0.0415 O.3     1  UNL1       -0.3779
      9 C          22.0943   70.7236   -1.8116 C.3     1  UNL1        0.1713
     10 C          22.5191   70.8403   -0.3626 C.3     1  UNL1        0.1895
     11 C          21.4209   72.0686   -2.0550 C.3     1  UNL1        0.1764
     12 C          22.9301   72.3001   -0.2714 C.3     1  UNL1        0.2383
     13 H          23.6860   69.7952   -2.5214 H       1  UNL1        0.2105
     14 H          23.2632   69.0414   -0.1141 H       1  UNL1        0.2106
     15 O          21.6044   70.9528    1.8275 O.2     1  UNL1       -0.2464
     16 O          22.1929   74.4942    4.7178 O.2     1  UNL1       -0.2670
     17 N          22.7231   72.8464    1.0402 N.ar    1  UNL1       -0.2551
     18 N          21.8987   72.7172    3.2650 N.ar    1  UNL1       -0.2743
     19 C          22.0444   72.0878    2.0221 C.ar    1  UNL1        0.3323
     20 C          23.1912   74.1207    1.3418 C.ar    1  UNL1        0.0869
     21 C          23.0431   74.7070    2.5316 C.ar    1  UNL1        0.0795
     22 C          22.3452   73.9822    3.6130 C.ar    1  UNL1        0.2626
     23 H          21.4286   72.2078    3.9646 H       1  UNL1        0.1734
     24 O          17.1031   73.2766   -4.0001 O.3     1  UNL1       -0.2703
     25 P          16.8269   72.7855   -5.5152 P.3     1  UNL1        0.2208
     26 O          16.0179   74.0263   -6.1658 O.co2   1  UNL1       -0.4371
     27 O          16.1199   71.4649   -5.6148 O.2     1  UNL1       -0.5170
     28 O          18.2747   72.8244   -6.2276 O.3     1  UNL1       -0.2858
     29 O          19.0222   70.7221   -7.0263 O.3     1  UNL1       -0.3258
     30 O          22.5642   72.8274   -7.2954 O.3     1  UNL1       -0.3794
     31 O          21.1371   72.1412   -9.6913 O.3     1  UNL1       -0.3794
     32 O          20.7847   73.2752   -5.0565 O.3     1  UNL1       -0.3775
     33 C          21.1463   72.6499   -7.3542 C.3     1  UNL1        0.1715
     34 C          20.8395   71.5882   -8.4123 C.3     1  UNL1        0.1694
     35 C          20.6417   72.2040   -5.9831 C.3     1  UNL1        0.1967
     36 C          19.3699   71.1507   -8.3481 C.3     1  UNL1        0.1761
     37 C          19.1842   71.7433   -6.0400 C.3     1  UNL1        0.2704
     38 H          22.8909   73.1110   -8.1627 H       1  UNL1        0.2105
     39 H          22.0678   72.4138   -9.7184 H       1  UNL1        0.2105
     40 H          21.7118   73.5576   -5.0294 H       1  UNL1        0.2106
     41 O          18.9157   70.4887  -10.5986 O.3     1  UNL1       -0.3794
     42 C          19.0797   69.9817   -9.2869 C.3     1  UNL1        0.1693
     43 H          18.7307   69.7558  -11.2071 H       1  UNL1        0.2105
@<TRIPOS>UNITY_ATOM_ATTR
2 1
charge -1
26 1
charge -1
@<TRIPOS>BOND
     1    25    28    1
     2    25    24    1
     3    25    26    1
     4    25    27    2
     5     1     4    1
     6     1    24    1
     7     1     2    1
     8     1     3    2
     9     6    11    1
    10     6    12    1
    11    29    36    1
    12    29    37    1
    13     7     9    1
    14     7    13    1
    15     8    10    1
    16     8    14    1
    17    28    37    1
    18     4     5    1
    19    30    33    1
    20    30    38    1
    21    31    34    1
    22    31    39    1
    23    32    35    1
    24    32    40    1
    25    41    42    1
    26    41    43    1
    27    15    19    2
    28    16    22    2
    29    17    12    1
    30    17    19   ar
    31    17    20   ar
    32    18    19   ar
    33    18    22   ar
    34    18    23    1
    35     9    10    1
    36     9    11    1
    37    10    12    1
    38    11     5    1
    39    33    34    1
    40    33    35    1
    41    34    36    1
    42    35    37    1
    43    36    42    1
    44    20    21   ar
    45    21    22   ar
@<TRIPOS>MOLECULE
*****
 43 45 0 0 0
SMALL
GASTEIGER

@<TRIPOS>ATOM
      1 P          20.4733   69.8237   -2.7639 P.3     1  UNL1        0.2189
      2 O          22.0072   69.8247   -3.2780 O.co2   1  UNL1       -0.4371
      3 O          19.6628   68.6350   -3.1900 O.2     1  UNL1       -0.5170
      4 O          19.9059   71.2650   -3.2316 O.3     1  UNL1       -0.3112
      5 C          18.5243   71.3860   -3.5219 C.3     1  UNL1        0.1811
      6 O          18.8354   73.1147   -5.1615 O.3     1  UNL1       -0.3308
      7 O          16.5126   74.5008   -3.8677 O.3     1  UNL1       -0.3794
      8 O          15.3757   73.3673   -6.0721 O.3     1  UNL1       -0.3779
      9 C          16.7316   73.1058   -4.0710 C.3     1  UNL1        0.1713
     10 C          16.5229   72.7475   -5.5276 C.3     1  UNL1        0.1895
     11 C          18.2190   72.8325   -3.8861 C.3     1  UNL1        0.1764
     12 C          17.8116   73.2429   -6.1616 C.3     1  UNL1        0.2383
     13 H          15.5693   74.6996   -3.9802 H       1  UNL1        0.2105
     14 H          14.5822   73.0190   -5.6364 H       1  UNL1        0.2106
     15 O          17.4086   70.4593   -6.4206 O.2     1  UNL1       -0.2464
     16 O          19.2906   70.3931  -10.6271 O.2     1  UNL1       -0.2670
     17 N          18.1863   72.4728   -7.3139 N.ar    1  UNL1       -0.2551
     18 N          18.3458   70.4286   -8.5150 N.ar    1  UNL1       -0.2743
     19 C          17.9406   71.0802   -7.3431 C.ar    1  UNL1        0.3323
     20 C          18.7900   73.0985   -8.3993 C.ar    1  UNL1        0.0869
     21 C          19.1716   72.4627   -9.5089 C.ar    1  UNL1        0.0795
     22 C          18.9508   71.0063   -9.6199 C.ar    1  UNL1        0.2626
     23 H          18.1851   69.4580   -8.5577 H       1  UNL1        0.1734
     24 O          20.6261   69.9952   -1.1638 O.3     1  UNL1       -0.2703
     25 P          21.8890   70.4441   -0.2601 P.3     1  UNL1        0.2208
     26 O          22.7361   71.3986   -1.2545 O.co2   1  UNL1       -0.4371
     27 O          22.6716   69.2994    0.3154 O.2     1  UNL1       -0.5170
     28 O          21.2679   71.4495    0.8391 O.3     1  UNL1       -0.2858
     29 O          21.3580   73.7729    1.2974 O.3     1  UNL1       -0.3258
     30 O          22.0745   72.3228    5.0967 O.3     1  UNL1       -0.3794
     31 O          19.5375   73.5257    4.4932 O.3     1  UNL1       -0.3794
     32 O          23.2205   70.9839    2.8002 O.3     1  UNL1       -0.3775
     33 C          21.4856   72.3274    3.7934 C.3     1  UNL1        0.1715
     34 C          20.6740   73.6151    3.6385 C.3     1  UNL1        0.1694
     35 C          22.5940   72.2610    2.7445 C.3     1  UNL1        0.1967
     36 C          20.2332   73.8204    2.1829 C.3     1  UNL1        0.1761
     37 C          22.0566   72.5270    1.3372 C.3     1  UNL1        0.2704
     38 H          21.3760   72.3643    5.7674 H       1  UNL1        0.2105
     39 H          19.8296   73.3958    5.4092 H       1  UNL1        0.2105
     40 H          23.5567   70.8276    3.6959 H       1  UNL1        0.2106
     41 O          18.2082   75.0721    2.3876 O.3     1  UNL1       -0.3794
     42 C          19.5587   75.1746    1.9752 C.3     1  UNL1        0.1693
     43 H          17.7665   75.9268    2.2614 H       1  UNL1        0.2105
@<TRIPOS>UNITY_ATOM_ATTR
2 1
charge -1
26 1
charge -1
@<TRIPOS>BOND
     1    25    28    1
     2    25    24    1
     3    25    26    1
     4    25    27    2
     5     1     4    1
     6     1    24    1
     7     1     2    1
     8     1     3    2
     9     6    11    1
    10     6    12    1
    11    29    36    1
    12    29    37    1
    13     7     9    1
    14     7    13    1
    15     8    10    1
    16     8    14    1
    17    28    37    1
    18     4     5    1
    19    30    33    1
    20    30    38    1
    21    31    34    1
    22    31    39    1
    23    32    35    1
    24    32    40    1
    25    41    42    1
    26    41    43    1
    27    15    19    2
    28    16    22    2
    29    17    12    1
    30    17    19   ar
    31    17    20   ar
    32    18    19   ar
    33    18    22   ar
    34    18    23    1
    35     9    10    1
    36     9    11    1
    37    10    12    1
    38    11     5    1
    39    33    34    1
    40    33    35    1
    41    34    36    1
    42    35    37    1
    43    36    42    1
    44    20    21   ar
    45    21    22   ar
@<TRIPOS>MOLECULE
*****
 43 45 0 0 0
SMALL
GASTEIGER

@<TRIPOS>ATOM
      1 P          19.1202   75.5152   -5.3070 P.3     1  UNL1        0.2189
      2 O          17.6007   75.7175   -4.7898 O.co2   1  UNL1       -0.4371
      3 O          19.8080   76.7698   -5.7593 O.2     1  UNL1       -0.5170
      4 O          19.0007   74.3413   -6.4141 O.3     1  UNL1       -0.3112
      5 C          20.0744   74.1541   -7.3196 C.3     1  UNL1        0.1811
      6 O          19.6809   71.8745   -7.9695 O.3     1  UNL1       -0.3308
      7 O          18.0185   72.9937  -10.1998 O.3     1  UNL1       -0.3794
      8 O          16.1359   72.2294   -8.3810 O.3     1  UNL1       -0.3779
      9 C          18.1717   73.4680   -8.8630 C.3     1  UNL1        0.1713
     10 C          17.4182   72.5757   -7.8989 C.3     1  UNL1        0.1895
     11 C          19.6187   73.2366   -8.4460 C.3     1  UNL1        0.1764
     12 C          18.3450   71.3769   -7.7892 C.3     1  UNL1        0.2383
     13 H          17.1021   73.1312  -10.4884 H       1  UNL1        0.2105
     14 H          15.5839   73.0253   -8.4328 H       1  UNL1        0.2106
     15 O          16.1374   69.8408   -6.9261 O.2     1  UNL1       -0.2464
     16 O          18.1147   68.9487   -2.8597 O.2     1  UNL1       -0.2670
     17 N          18.2565   70.7315   -6.5097 N.ar    1  UNL1       -0.2551
     18 N          17.1238   69.3977   -4.9021 N.ar    1  UNL1       -0.2743
     19 C          17.1035   69.9843   -6.1739 C.ar    1  UNL1        0.3323
     20 C          19.3055   70.8424   -5.6036 C.ar    1  UNL1        0.0869
     21 C          19.3088   70.2780   -4.3942 C.ar    1  UNL1        0.0795
     22 C          18.1419   69.4801   -3.9654 C.ar    1  UNL1        0.2626
     23 H          16.3309   68.8727   -4.6462 H       1  UNL1        0.1734
     24 O          19.8317   74.7694   -4.0619 O.3     1  UNL1       -0.2703
     25 P          20.6044   75.3607   -2.7710 P.3     1  UNL1        0.2208
     26 O          19.4500   76.1853   -1.9932 O.co2   1  UNL1       -0.4371
     27 O          21.8262   76.1681   -3.1017 O.2     1  UNL1       -0.5170
     28 O          20.8852   74.0740   -1.8381 O.3     1  UNL1       -0.2858
     29 O          22.5212   73.3090   -0.3036 O.3     1  UNL1       -0.3258
     30 O          22.3295   70.0009   -2.7676 O.3     1  UNL1       -0.3794
     31 O          21.1970   69.8730   -0.1315 O.3     1  UNL1       -0.3794
     32 O          22.1547   72.6584   -3.9019 O.3     1  UNL1       -0.3775
     33 C          21.8125   71.1357   -2.0673 C.3     1  UNL1        0.1715
     34 C          22.0512   70.9254   -0.5708 C.3     1  UNL1        0.1694
     35 C          22.5306   72.3928   -2.5549 C.3     1  UNL1        0.1967
     36 C          21.7683   72.2092    0.2211 C.3     1  UNL1        0.1761
     37 C          22.2189   73.6006   -1.6694 C.3     1  UNL1        0.2704
     38 H          21.8774   69.1995   -2.4630 H       1  UNL1        0.2105
     39 H          21.3855   69.0685   -0.6397 H       1  UNL1        0.2105
     40 H          22.3573   71.8865   -4.4523 H       1  UNL1        0.2106
     41 O          22.7549   70.8030    1.8818 O.3     1  UNL1       -0.3794
     42 C          22.1502   72.0690    1.6930 C.3     1  UNL1        0.1693
     43 H          23.0035   70.6999    2.8142 H       1  UNL1        0.2105
@<TRIPOS>UNITY_ATOM_ATTR
2 1
charge -1
26 1
charge -1
@<TRIPOS>BOND
     1    25    28    1
     2    25    24    1
     3    25    26    1
     4    25    27    2
     5     1     4    1
     6     1    24    1
     7     1     2    1
     8     1     3    2
     9     6    11    1
    10     6    12    1
    11    29    36    1
    12    29    37    1
    13     7     9    1
    14     7    13    1
    15     8    10    1
    16     8    14    1
    17    28    37    1
    18     4     5    1
    19    30    33    1
    20    30    38    1
    21    31    34    1
    22    31    39    1
    23    32    35    1
    24    32    40    1
    25    41    42    1
    26    41    43    1
    27    15    19    2
    28    16    22    2
    29    17    12    1
    30    17    19   ar
    31    17    20   ar
    32    18    19   ar
    33    18    22   ar
    34    18    23    1
    35     9    10    1
    36     9    11    1
    37    10    12    1
    38    11     5    1
    39    33    34    1
    40    33    35    1
    41    34    36    1
    42    35    37    1
    43    36    42    1
    44    20    21   ar
    45    21    22   ar
@<TRIPOS>MOLECULE
*****
 43 45 0 0 0
SMALL
GASTEIGER

@<TRIPOS>ATOM
      1 P          21.8085   73.1677   -5.0444 P.3     1  UNL1        0.2189
      2 O          20.9294   74.5245   -5.1055 O.co2   1  UNL1       -0.4371
      3 O          23.2916   73.3681   -5.1525 O.2     1  UNL1       -0.5170
      4 O          21.1430   72.2223   -6.1763 O.3     1  UNL1       -0.3112
      5 C          21.2956   72.5868   -7.5370 C.3     1  UNL1        0.1811
      6 O          19.6826   70.8060   -7.5129 O.3     1  UNL1       -0.3308
      7 O          18.9632   71.6715  -10.2922 O.3     1  UNL1       -0.3794
      8 O          16.9674   72.7689   -8.7926 O.3     1  UNL1       -0.3779
      9 C          19.3497   72.4654   -9.1716 C.3     1  UNL1        0.1713
     10 C          18.2166   72.5483   -8.1701 C.3     1  UNL1        0.1895
     11 C          20.4072   71.6937   -8.3922 C.3     1  UNL1        0.1764
     12 C          18.2990   71.1932   -7.4883 C.3     1  UNL1        0.2383
     13 H          18.2885   72.1438  -10.8056 H       1  UNL1        0.2105
     14 H          16.9647   73.6435   -9.2118 H       1  UNL1        0.2106
     15 O          18.0133   73.5640   -5.9798 O.2     1  UNL1       -0.2464
     16 O          16.5758   71.2447   -2.2655 O.2     1  UNL1       -0.2670
     17 N          17.8515   71.2381   -6.1248 N.ar    1  UNL1       -0.2551
     18 N          17.2976   72.4073   -4.1316 N.ar    1  UNL1       -0.2743
     19 C          17.7437   72.4805   -5.4574 C.ar    1  UNL1        0.3323
     20 C          17.5248   70.0592   -5.4635 C.ar    1  UNL1        0.0869
     21 C          17.1022   70.0064   -4.1986 C.ar    1  UNL1        0.0795
     22 C          16.9619   71.2601   -3.4302 C.ar    1  UNL1        0.2626
     23 H          17.2151   73.2604   -3.6467 H       1  UNL1        0.1734
     24 O          21.3213   72.4807   -3.6647 O.3     1  UNL1       -0.2703
     25 P          21.5695   70.9976   -3.0718 P.3     1  UNL1        0.2208
     26 O          23.1534   70.7649   -3.3054 O.co2   1  UNL1       -0.4371
     27 O          20.6925   69.9389   -3.6752 O.2     1  UNL1       -0.5170
     28 O          21.4133   71.1648   -1.4741 O.3     1  UNL1       -0.2858
     29 O          23.0971   72.6493   -0.7140 O.3     1  UNL1       -0.3258
     30 O          21.4670   71.5809    2.9263 O.3     1  UNL1       -0.3794
     31 O          20.9851   74.2091    1.8735 O.3     1  UNL1       -0.3794
     32 O          21.7460   69.6016    0.8325 O.3     1  UNL1       -0.3775
     33 C          21.4472   71.8877    1.5296 C.3     1  UNL1        0.1715
     34 C          21.9620   73.3166    1.3451 C.3     1  UNL1        0.1694
     35 C          22.3399   70.8946    0.7877 C.3     1  UNL1        0.1967
     36 C          22.2221   73.6249   -0.1356 C.3     1  UNL1        0.1761
     37 C          22.5746   71.3203   -0.6627 C.3     1  UNL1        0.2704
     38 H          20.9017   72.2076    3.4031 H       1  UNL1        0.2105
     39 H          20.8297   74.0035    2.8088 H       1  UNL1        0.2105
     40 H          21.6029   69.3435    1.7560 H       1  UNL1        0.2106
     41 O          24.2592   74.8678   -0.0146 O.3     1  UNL1       -0.3794
     42 C          22.8838   74.9876   -0.3284 C.3     1  UNL1        0.1693
     43 H          24.6933   75.7275   -0.1332 H       1  UNL1        0.2105
@<TRIPOS>UNITY_ATOM_ATTR
2 1
charge -1
26 1
charge -1
@<TRIPOS>BOND
     1    25    28    1
     2    25    24    1
     3    25    26    1
     4    25    27    2
     5     1     4    1
     6     1    24    1
     7     1     2    1
     8     1     3    2
     9     6    11    1
    10     6    12    1
    11    29    36    1
    12    29    37    1
    13     7     9    1
    14     7    13    1
    15     8    10    1
    16     8    14    1
    17    28    37    1
    18     4     5    1
    19    30    33    1
    20    30    38    1
    21    31    34    1
    22    31    39    1
    23    32    35    1
    24    32    40    1
    25    41    42    1
    26    41    43    1
    27    15    19    2
    28    16    22    2
    29    17    12    1
    30    17    19   ar
    31    17    20   ar
    32    18    19   ar
    33    18    22   ar
    34    18    23    1
    35     9    10    1
    36     9    11    1
    37    10    12    1
    38    11     5    1
    39    33    34    1
    40    33    35    1
    41    34    36    1
    42    35    37    1
    43    36    42    1
    44    20    21   ar
    45    21    22   ar
@<TRIPOS>MOLECULE
*****
 43 45 0 0 0
SMALL
GASTEIGER

@<TRIPOS>ATOM
      1 P          19.1484   70.2918   -3.7557 P.3     1  UNL1        0.2189
      2 O          19.1169   68.6813   -3.6056 O.co2   1  UNL1       -0.4371
      3 O          18.5421   71.0472   -2.6097 O.2     1  UNL1       -0.5170
      4 O          18.4813   70.5600   -5.2052 O.3     1  UNL1       -0.3112
      5 C          19.3341   70.8549   -6.2978 C.3     1  UNL1        0.1811
      6 O          17.1883   70.7869   -7.3770 O.3     1  UNL1       -0.3308
      7 O          18.6990   70.8118   -9.9670 O.3     1  UNL1       -0.3794
      8 O          17.8893   73.4047   -9.7262 O.3     1  UNL1       -0.3779
      9 C          18.9983   71.4781   -8.7416 C.3     1  UNL1        0.1713
     10 C          18.0663   72.6549   -8.5416 C.3     1  UNL1        0.1895
     11 C          18.5973   70.5566   -7.5964 C.3     1  UNL1        0.1764
     12 C          16.7884   71.9710   -8.0861 C.3     1  UNL1        0.2383
     13 H          18.9468   71.3809  -10.7132 H       1  UNL1        0.2105
     14 H          18.7298   73.8200   -9.9748 H       1  UNL1        0.2106
     15 O          14.9829   73.9604   -8.9582 O.2     1  UNL1       -0.2464
     16 O          13.8460   75.0826   -4.6351 O.2     1  UNL1       -0.2670
     17 N          16.0072   72.7977   -7.2100 N.ar    1  UNL1       -0.2551
     18 N          14.4182   74.5174   -6.8049 N.ar    1  UNL1       -0.2743
     19 C          15.1308   73.7679   -7.7496 C.ar    1  UNL1        0.3323
     20 C          16.1139   72.6420   -5.8322 C.ar    1  UNL1        0.0869
     21 C          15.4282   73.3656   -4.9448 C.ar    1  UNL1        0.0795
     22 C          14.4907   74.4008   -5.4259 C.ar    1  UNL1        0.2626
     23 H          13.8018   75.1996   -7.1577 H       1  UNL1        0.1734
     24 O          20.7137   70.6023   -4.0131 O.3     1  UNL1       -0.2703
     25 P          21.7359   71.6014   -3.2581 P.3     1  UNL1        0.2208
     26 O          21.0899   73.0613   -3.5210 O.co2   1  UNL1       -0.4371
     27 O          23.1648   71.4681   -3.6989 O.2     1  UNL1       -0.5170
     28 O          21.4920   71.3246   -1.6869 O.3     1  UNL1       -0.2858
     29 O          23.1663   72.7119   -0.7443 O.3     1  UNL1       -0.3258
     30 O          21.1879   71.6236    2.7129 O.3     1  UNL1       -0.3794
     31 O          20.9095   74.2971    1.7017 O.3     1  UNL1       -0.3794
     32 O          21.5602   69.6887    0.5922 O.3     1  UNL1       -0.3775
     33 C          21.3004   71.9670    1.3292 C.3     1  UNL1        0.1715
     34 C          21.8892   73.3757    1.2310 C.3     1  UNL1        0.1694
     35 C          22.2101   70.9546    0.6359 C.3     1  UNL1        0.1967
     36 C          22.2874   73.7104   -0.2128 C.3     1  UNL1        0.1761
     37 C          22.5854   71.4068   -0.7765 C.3     1  UNL1        0.2704
     38 H          20.6112   72.2623    3.1589 H       1  UNL1        0.2105
     39 H          20.6664   74.0745    2.6141 H       1  UNL1        0.2105
     40 H          21.3280   69.4134    1.4923 H       1  UNL1        0.2106
     41 O          24.3906   74.8289   -0.0272 O.3     1  UNL1       -0.3794
     42 C          23.0204   75.0466   -0.3088 C.3     1  UNL1        0.1693
     43 H          24.8698   75.6708   -0.0849 H       1  UNL1        0.2105
@<TRIPOS>UNITY_ATOM_ATTR
2 1
charge -1
26 1
charge -1
@<TRIPOS>BOND
     1    25    28    1
     2    25    24    1
     3    25    26    1
     4    25    27    2
     5     1     4    1
     6     1    24    1
     7     1     2    1
     8     1     3    2
     9     6    11    1
    10     6    12    1
    11    29    36    1
    12    29    37    1
    13     7     9    1
    14     7    13    1
    15     8    10    1
    16     8    14    1
    17    28    37    1
    18     4     5    1
    19    30    33    1
    20    30    38    1
    21    31    34    1
    22    31    39    1
    23    32    35    1
    24    32    40    1
    25    41    42    1
    26    41    43    1
    27    15    19    2
    28    16    22    2
    29    17    12    1
    30    17    19   ar
    31    17    20   ar
    32    18    19   ar
    33    18    22   ar
    34    18    23    1
    35     9    10    1
    36     9    11    1
    37    10    12    1
    38    11     5    1
    39    33    34    1
    40    33    35    1
    41    34    36    1
    42    35    37    1
    43    36    42    1
    44    20    21   ar
    45    21    22   ar
@<TRIPOS>MOLECULE
*****
 43 45 0 0 0
SMALL
GASTEIGER

@<TRIPOS>ATOM
      1 P          19.8663   70.9535   -3.4157 P.3     1  UNL1        0.2189
      2 O          20.3956   69.5222   -3.9527 O.co2   1  UNL1       -0.4371
      3 O          19.2560   70.9299   -2.0451 O.2     1  UNL1       -0.5170
      4 O          18.9043   71.4827   -4.6042 O.3     1  UNL1       -0.3112
      5 C          18.2081   70.5280   -5.3862 C.3     1  UNL1        0.1811
      6 O          17.8740   72.5783   -6.5938 O.3     1  UNL1       -0.3308
      7 O          16.1008   70.9946   -8.4210 O.3     1  UNL1       -0.3794
      8 O          18.4195   71.1679   -9.8458 O.3     1  UNL1       -0.3779
      9 C          17.3027   70.5977   -7.7628 C.3     1  UNL1        0.1713
     10 C          18.5038   71.2277   -8.4366 C.3     1  UNL1        0.1895
     11 C          17.3257   71.2576   -6.3897 C.3     1  UNL1        0.1764
     12 C          18.4513   72.6510   -7.9076 C.3     1  UNL1        0.2383
     13 H          16.0634   70.5852   -9.3002 H       1  UNL1        0.2105
     14 H          18.4572   70.2423  -10.1332 H       1  UNL1        0.2106
     15 O          19.0336   75.3271   -8.5983 O.2     1  UNL1       -0.2464
     16 O          23.4832   74.8340   -7.5031 O.2     1  UNL1       -0.2670
     17 N          19.7534   73.2483   -7.8124 N.ar    1  UNL1       -0.2551
     18 N          21.2487   75.0794   -8.0523 N.ar    1  UNL1       -0.2743
     19 C          19.9393   74.5999   -8.1853 C.ar    1  UNL1        0.3323
     20 C          20.8290   72.4960   -7.3531 C.ar    1  UNL1        0.0869
     21 C          22.0717   72.9678   -7.2333 C.ar    1  UNL1        0.0795
     22 C          22.3512   74.3707   -7.6019 C.ar    1  UNL1        0.2626
     23 H          21.4021   76.0184   -8.3065 H       1  UNL1        0.1734
     24 O          21.1700   71.8989   -3.5553 O.3     1  UNL1       -0.2703
     25 P          22.5889   71.8716   -2.7814 P.3     1  UNL1        0.2208
     26 O          23.6401   72.3434   -3.9172 O.co2   1  UNL1       -0.4371
     27 O          22.9168   70.5525   -2.1438 O.2     1  UNL1       -0.5170
     28 O          22.5168   73.1125   -1.7520 O.3     1  UNL1       -0.2858
     29 O          21.4260   72.2275    0.1568 O.3     1  UNL1       -0.3258
     30 O          22.1105   76.0683    1.5097 O.3     1  UNL1       -0.3794
     31 O          23.6497   73.8926    2.5800 O.3     1  UNL1       -0.3794
     32 O          21.3637   75.6215   -1.2512 O.3     1  UNL1       -0.3775
     33 C          22.4044   74.8698    0.7868 C.3     1  UNL1        0.1715
     34 C          22.4802   73.7135    1.7859 C.3     1  UNL1        0.1694
     35 C          21.3002   74.6222   -0.2392 C.3     1  UNL1        0.1967
     36 C          22.5264   72.3600    1.0642 C.3     1  UNL1        0.1761
     37 C          21.4097   73.2293   -0.8620 C.3     1  UNL1        0.2704
     38 H          22.8081   76.2315    2.1625 H       1  UNL1        0.2105
     39 H          23.6082   74.7512    3.0298 H       1  UNL1        0.2105
     40 H          21.2930   76.4986   -0.8442 H       1  UNL1        0.2106
     41 O          23.0017   70.0454    1.4189 O.3     1  UNL1       -0.3794
     42 C          22.4433   71.1884    2.0402 C.3     1  UNL1        0.1693
     43 H          22.9559   69.2918    2.0286 H       1  UNL1        0.2105
@<TRIPOS>UNITY_ATOM_ATTR
2 1
charge -1
26 1
charge -1
@<TRIPOS>BOND
     1    25    28    1
     2    25    24    1
     3    25    26    1
     4    25    27    2
     5     1     4    1
     6     1    24    1
     7     1     2    1
     8     1     3    2
     9     6    11    1
    10     6    12    1
    11    29    36    1
    12    29    37    1
    13     7     9    1
    14     7    13    1
    15     8    10    1
    16     8    14    1
    17    28    37    1
    18     4     5    1
    19    30    33    1
    20    30    38    1
    21    31    34    1
    22    31    39    1
    23    32    35    1
    24    32    40    1
    25    41    42    1
    26    41    43    1
    27    15    19    2
    28    16    22    2
    29    17    12    1
    30    17    19   ar
    31    17    20   ar
    32    18    19   ar
    33    18    22   ar
    34    18    23    1
    35     9    10    1
    36     9    11    1
    37    10    12    1
    38    11     5    1
    39    33    34    1
    40    33    35    1
    41    34    36    1
    42    35    37    1
    43    36    42    1
    44    20    21   ar
    45    21    22   ar
@<TRIPOS>MOLECULE
*****
 43 45 0 0 0
SMALL
GASTEIGER

@<TRIPOS>ATOM
      1 P          22.4579   72.9742   -4.7523 P.3     1  UNL1        0.2189
      2 O          21.4765   74.2518   -4.6043 O.co2   1  UNL1       -0.4371
      3 O          23.8169   73.1446   -4.1394 O.2     1  UNL1       -0.5170
      4 O          22.4377   72.6504   -6.3374 O.3     1  UNL1       -0.3112
      5 C          21.2354   72.8651   -7.0560 C.3     1  UNL1        0.1811
      6 O          19.1668   71.6688   -6.8042 O.3     1  UNL1       -0.3308
      7 O          20.2915   69.6879   -8.7541 O.3     1  UNL1       -0.3794
      8 O          18.6154   71.1704  -10.3128 O.3     1  UNL1       -0.3779
      9 C          20.4481   71.1055   -8.7164 C.3     1  UNL1        0.1713
     10 C          19.1746   71.7874   -9.1711 C.3     1  UNL1        0.1895
     11 C          20.5318   71.5297   -7.2555 C.3     1  UNL1        0.1764
     12 C          18.2904   71.6550   -7.9428 C.3     1  UNL1        0.2383
     13 H          20.2360   69.3933   -9.6771 H       1  UNL1        0.2105
     14 H          19.2148   71.2820  -11.0671 H       1  UNL1        0.2106
     15 O          18.5553   74.1473   -9.2452 O.2     1  UNL1       -0.2464
     16 O          14.6353   75.7299   -7.4094 O.2     1  UNL1       -0.2670
     17 N          17.3535   72.7363   -7.8233 N.ar    1  UNL1       -0.2551
     18 N          16.6031   74.9332   -8.3302 N.ar    1  UNL1       -0.2743
     19 C          17.5800   73.9471   -8.5183 C.ar    1  UNL1        0.3323
     20 C          16.2248   72.5901   -7.0241 C.ar    1  UNL1        0.0869
     21 C          15.3034   73.5406   -6.8542 C.ar    1  UNL1        0.0795
     22 C          15.4650   74.8361   -7.5454 C.ar    1  UNL1        0.2626
     23 H          16.7401   75.7854   -8.8043 H       1  UNL1        0.1734
     24 O          21.5829   71.7690   -4.1240 O.3     1  UNL1       -0.2703
     25 P          21.9031   70.7414   -2.9180 P.3     1  UNL1        0.2208
     26 O          23.5025   70.5246   -3.0301 O.co2   1  UNL1       -0.4371
     27 O          21.1017   69.4726   -2.9615 O.2     1  UNL1       -0.5170
     28 O          21.7031   71.6132   -1.5745 O.3     1  UNL1       -0.2858
     29 O          23.2944   72.9660   -0.4546 O.3     1  UNL1       -0.3258
     30 O          21.1428   71.6384    2.8102 O.3     1  UNL1       -0.3794
     31 O          20.8722   74.3641    1.9468 O.3     1  UNL1       -0.3794
     32 O          21.6720   69.8425    0.6024 O.3     1  UNL1       -0.3775
     33 C          21.3275   72.0674    1.4584 C.3     1  UNL1        0.1715
     34 C          21.8944   73.4883    1.4794 C.3     1  UNL1        0.1694
     35 C          22.2943   71.1132    0.7596 C.3     1  UNL1        0.1967
     36 C          22.3680   73.9165    0.0839 C.3     1  UNL1        0.1761
     37 C          22.7411   71.6564   -0.5988 C.3     1  UNL1        0.2704
     38 H          20.5296   72.2398    3.2594 H       1  UNL1        0.2105
     39 H          20.5816   74.0825    2.8285 H       1  UNL1        0.2105
     40 H          21.3940   69.5093    1.4693 H       1  UNL1        0.2106
     41 O          22.1020   76.2909    0.1021 O.3     1  UNL1       -0.3794
     42 C          23.0799   75.2672    0.1110 C.3     1  UNL1        0.1693
     43 H          22.5406   77.1564    0.1195 H       1  UNL1        0.2105
@<TRIPOS>UNITY_ATOM_ATTR
2 1
charge -1
26 1
charge -1
@<TRIPOS>BOND
     1    25    28    1
     2    25    24    1
     3    25    26    1
     4    25    27    2
     5     1     4    1
     6     1    24    1
     7     1     2    1
     8     1     3    2
     9     6    11    1
    10     6    12    1
    11    29    36    1
    12    29    37    1
    13     7     9    1
    14     7    13    1
    15     8    10    1
    16     8    14    1
    17    28    37    1
    18     4     5    1
    19    30    33    1
    20    30    38    1
    21    31    34    1
    22    31    39    1
    23    32    35    1
    24    32    40    1
    25    41    42    1
    26    41    43    1
    27    15    19    2
    28    16    22    2
    29    17    12    1
    30    17    19   ar
    31    17    20   ar
    32    18    19   ar
    33    18    22   ar
    34    18    23    1
    35     9    10    1
    36     9    11    1
    37    10    12    1
    38    11     5    1
    39    33    34    1
    40    33    35    1
    41    34    36    1
    42    35    37    1
    43    36    42    1
    44    20    21   ar
    45    21    22   ar
@<TRIPOS>MOLECULE
*****
 43 45 0 0 0
SMALL
GASTEIGER

@<TRIPOS>ATOM
      1 P          18.1952   75.1744   -1.9348 P.3     1  UNL1        0.2189
      2 O          18.4438   74.2936   -0.6008 O.co2   1  UNL1       -0.4371
      3 O          17.1786   76.2687   -1.7915 O.2     1  UNL1       -0.5170
      4 O          17.8836   74.0710   -3.0764 O.3     1  UNL1       -0.3112
      5 C          18.7927   72.9972   -3.2449 C.3     1  UNL1        0.1811
      6 O          17.3981   71.3747   -4.3387 O.3     1  UNL1       -0.3308
      7 O          18.1759   69.4964   -2.1346 O.3     1  UNL1       -0.3794
      8 O          19.7819   68.6992   -4.1894 O.3     1  UNL1       -0.3779
      9 C          18.9558   70.5009   -2.7812 C.3     1  UNL1        0.1713
     10 C          19.3529   70.0454   -4.1699 C.3     1  UNL1        0.1895
     11 C          18.0423   71.6823   -3.0830 C.3     1  UNL1        0.1764
     12 C          18.0681   70.2610   -4.9516 C.3     1  UNL1        0.2383
     13 H          18.7380   68.7317   -1.9316 H       1  UNL1        0.2105
     14 H          20.6021   68.6136   -3.6788 H       1  UNL1        0.2106
     15 O          16.1733   69.9255   -7.0192 O.2     1  UNL1       -0.2464
     16 O          19.1160   71.4649  -10.2149 O.2     1  UNL1       -0.2670
     17 N          18.3123   70.5666   -6.3330 N.ar    1  UNL1       -0.2551
     18 N          17.6400   70.6925   -8.6087 N.ar    1  UNL1       -0.2743
     19 C          17.2937   70.3610   -7.2926 C.ar    1  UNL1        0.3323
     20 C          19.5504   71.0647   -6.7243 C.ar    1  UNL1        0.0869
     21 C          19.8651   71.3746   -7.9837 C.ar    1  UNL1        0.0795
     22 C          18.8571   71.1893   -9.0475 C.ar    1  UNL1        0.2626
     23 H          16.9462   70.5571   -9.2944 H       1  UNL1        0.1734
     24 O          19.6814   75.6827   -2.3169 O.3     1  UNL1       -0.2703
     25 P          21.0489   75.7077   -1.4554 P.3     1  UNL1        0.2208
     26 O          20.5830   76.3327   -0.0377 O.co2   1  UNL1       -0.4371
     27 O          22.1786   76.4440   -2.1154 O.2     1  UNL1       -0.5170
     28 O          21.3583   74.1564   -1.1351 O.3     1  UNL1       -0.2858
     29 O          22.8751   72.9616    0.2391 O.3     1  UNL1       -0.3258
     30 O          23.3182   70.8109   -3.2579 O.3     1  UNL1       -0.3794
     31 O          21.9056   69.6452   -1.0458 O.3     1  UNL1       -0.3794
     32 O          23.0005   73.6863   -3.3615 O.3     1  UNL1       -0.3775
     33 C          22.6075   71.5717   -2.2774 C.3     1  UNL1        0.1715
     34 C          22.6907   70.8297   -0.9420 C.3     1  UNL1        0.1694
     35 C          23.2424   72.9564   -2.1636 C.3     1  UNL1        0.1967
     36 C          22.1850   71.7067    0.2115 C.3     1  UNL1        0.1761
     37 C          22.7053   73.7265   -0.9559 C.3     1  UNL1        0.2704
     38 H          22.9198   69.9307   -3.3355 H       1  UNL1        0.2105
     39 H          22.2350   69.1007   -1.7780 H       1  UNL1        0.2105
     40 H          23.3454   73.1885   -4.1186 H       1  UNL1        0.2106
     41 O          23.1917   69.8843    1.3839 O.3     1  UNL1       -0.3794
     42 C          22.4051   71.0465    1.5708 C.3     1  UNL1        0.1693
     43 H          23.3402   69.4539    2.2409 H       1  UNL1        0.2105
@<TRIPOS>UNITY_ATOM_ATTR
2 1
charge -1
26 1
charge -1
@<TRIPOS>BOND
     1    25    28    1
     2    25    24    1
     3    25    26    1
     4    25    27    2
     5     1     4    1
     6     1    24    1
     7     1     2    1
     8     1     3    2
     9     6    11    1
    10     6    12    1
    11    29    36    1
    12    29    37    1
    13     7     9    1
    14     7    13    1
    15     8    10    1
    16     8    14    1
    17    28    37    1
    18     4     5    1
    19    30    33    1
    20    30    38    1
    21    31    34    1
    22    31    39    1
    23    32    35    1
    24    32    40    1
    25    41    42    1
    26    41    43    1
    27    15    19    2
    28    16    22    2
    29    17    12    1
    30    17    19   ar
    31    17    20   ar
    32    18    19   ar
    33    18    22   ar
    34    18    23    1
    35     9    10    1
    36     9    11    1
    37    10    12    1
    38    11     5    1
    39    33    34    1
    40    33    35    1
    41    34    36    1
    42    35    37    1
    43    36    42    1
    44    20    21   ar
    45    21    22   ar
