@<TRIPOS>MOLECULE
UD1
 46 48 0 0 0
SMALL
GASTEIGER

@<TRIPOS>ATOM
      1 P          21.7413   71.0673   -2.5851 P.3     1  UNL1        0.2189
      2 O          23.1819   71.4040   -2.5836 O.2     1  UNL1       -0.5170
      3 O          21.5466   69.5440   -3.0692 O.3     1  UNL1       -0.4371
      4 O          20.9614   72.0530   -3.5917 O.3     1  UNL1       -0.3112
      5 C          19.9169   72.6714   -2.8388 C.3     1  UNL1        0.1811
      6 C          17.7970   71.4409   -5.4693 C.3     1  UNL1        0.2383
      7 C          17.9656   70.2355   -4.5107 C.3     1  UNL1        0.1895
      8 O          16.8060   69.4024   -4.5283 O.3     1  UNL1       -0.3779
      9 C          18.1248   70.9334   -3.1349 C.3     1  UNL1        0.1713
     10 C          18.5674   72.3658   -3.4907 C.3     1  UNL1        0.1764
     11 O          18.6889   72.4350   -4.9217 O.3     1  UNL1       -0.3308
     12 O          16.8794   70.9472   -2.4339 O.3     1  UNL1       -0.3794
     13 H          16.9748   68.6743   -3.9144 H       1  UNL1        0.2106
     14 H          16.6274   70.0247   -2.2940 H       1  UNL1        0.2105
     15 N          18.1972   71.0821   -6.8304 N.ar    1  UNL1       -0.2551
     16 C          17.2683   70.6739   -7.7123 C.ar    1  UNL1        0.3323
     17 N          17.6072   70.3414   -8.9720 N.ar    1  UNL1       -0.2743
     18 C          18.8944   70.4044   -9.3684 C.ar    1  UNL1        0.2626
     19 C          19.8834   70.8267   -8.4484 C.ar    1  UNL1        0.0795
     20 C          19.5150   71.1595   -7.1927 C.ar    1  UNL1        0.0869
     21 O          16.1032   70.6120   -7.3698 O.2     1  UNL1       -0.2464
     22 O          19.2026   70.0994  -10.5057 O.2     1  UNL1       -0.2670
     23 H          16.9234   70.0536   -9.5963 H       1  UNL1        0.1734
     24 O          21.1484   71.2392   -1.0993 O.3     1  UNL1       -0.2703
     25 P          22.2632   70.6743   -0.0857 P.3     1  UNL1        0.2208
     26 O          23.4558   70.2495   -0.8512 O.2     1  UNL1       -0.5170
     27 O          21.6674   69.4146    0.7208 O.3     1  UNL1       -0.4371
     28 O          22.6777   71.8292    0.9560 O.3     1  UNL1       -0.2865
     29 C          21.7226   72.8816    0.8096 C.3     1  UNL1        0.2611
     30 C          22.4473   74.1701    0.4164 C.3     1  UNL1        0.1582
     31 C          23.4743   74.5182    1.4998 C.3     1  UNL1        0.1625
     32 C          22.7617   74.5587    2.8558 C.3     1  UNL1        0.1686
     33 C          22.0157   73.2394    3.0663 C.3     1  UNL1        0.1760
     34 O          24.0514   75.7950    1.2201 O.3     1  UNL1       -0.3801
     35 O          23.7245   74.7363    3.8965 O.3     1  UNL1       -0.3794
     36 O          21.0344   73.0720    2.0439 O.3     1  UNL1       -0.3263
     37 H          24.6898   75.9733    1.9242 H       1  UNL1        0.2105
     38 H          23.2344   74.7553    4.7307 H       1  UNL1        0.2105
     39 C          23.0807   74.9360   -1.8077 C.2     1  UNL1        0.2231
     40 C          23.7845   74.7358   -3.1256 C.3     1  UNL1        0.0946
     41 N          23.1313   73.9764   -0.8638 N.am    1  UNL1       -0.2994
     42 O          22.4680   75.9609   -1.5970 O.2     1  UNL1       -0.2751
     43 H          23.6213   73.1560   -1.0322 H       1  UNL1        0.1496
     44 C          21.3270   73.2568    4.4325 C.3     1  UNL1        0.1693
     45 O          22.1103   72.5164    5.3707 O.3     1  UNL1       -0.3794
     46 H          21.6422   72.5519    6.2159 H       1  UNL1        0.2105
@<TRIPOS>BOND
     1    29    30    1
     2    29    28    1
     3    29    36    1
     4    30    31    1
     5    30    41    1
     6    31    32    1
     7    31    34    1
     8    32    33    1
     9    32    35    1
    10    33    44    1
    11    33    36    1
    12    44    45    1
    13    39    40    1
    14    39    41   am
    15    39    42    2
    16    41    43    1
    17    28    25    1
    18    34    37    1
    19    35    38    1
    20    45    46    1
    21    15    16   ar
    22    15    20   ar
    23    15     6    1
    24    16    17   ar
    25    16    21    2
    26    17    18   ar
    27    17    23    1
    28    18    19   ar
    29    18    22    2
    30    19    20   ar
    31     6     7    1
    32     6    11    1
    33     7     8    1
    34     7     9    1
    35     8    13    1
    36     9    10    1
    37     9    12    1
    38    10    11    1
    39    10     5    1
    40    12    14    1
    41     5     4    1
    42     4     1    1
    43     1     2    2
    44     1     3    1
    45     1    24    1
    46    24    25    1
    47    25    26    2
    48    25    27    1
@<TRIPOS>MOLECULE
UD1
 46 48 0 0 0
SMALL
GASTEIGER

@<TRIPOS>ATOM
      1 P          23.3182   74.2885   -3.7812 P.3     1  UNL1        0.2189
      2 O          24.0648   73.0217   -3.9438 O.2     1  UNL1       -0.5170
      3 O          23.8636   75.3726   -4.8395 O.3     1  UNL1       -0.4371
      4 O          23.5292   74.8469   -2.2856 O.3     1  UNL1       -0.3112
      5 C          22.5118   74.2556   -1.4758 C.3     1  UNL1        0.1811
      6 C          23.0143   72.4151    1.5717 C.3     1  UNL1        0.2383
      7 C          21.8568   71.6738    0.8569 C.3     1  UNL1        0.1895
      8 O          21.8703   70.2810    1.1717 O.3     1  UNL1       -0.3779
      9 C          22.1957   71.9063   -0.6386 C.3     1  UNL1        0.1713
     10 C          23.1201   73.1391   -0.6257 C.3     1  UNL1        0.1764
     11 O          23.2380   73.5734    0.7399 O.3     1  UNL1       -0.3308
     12 O          22.8732   70.7706   -1.1806 O.3     1  UNL1       -0.3794
     13 H          21.1286   69.8795    0.6982 H       1  UNL1        0.2106
     14 H          22.2667   70.0217   -1.1058 H       1  UNL1        0.2105
     15 N          22.6178   72.8178    2.9216 N.ar    1  UNL1       -0.2551
     16 C          21.3419   72.6622    3.3156 C.ar    1  UNL1        0.3323
     17 N          20.9500   73.0203    4.5527 N.ar    1  UNL1       -0.2743
     18 C          21.8357   73.5529    5.4186 C.ar    1  UNL1        0.2626
     19 C          23.1808   73.7278    5.0148 C.ar    1  UNL1        0.0795
     20 C          23.5481   73.3551    3.7700 C.ar    1  UNL1        0.0869
     21 O          20.5314   72.1832    2.5461 O.2     1  UNL1       -0.2464
     22 O          21.4814   73.8813    6.5357 O.2     1  UNL1       -0.2670
     23 H          20.0267   72.8965    4.8217 H       1  UNL1        0.1734
     24 O          21.7521   74.0255   -4.0397 O.3     1  UNL1       -0.2703
     25 P          21.6385   72.6200   -4.8149 P.3     1  UNL1        0.2208
     26 O          22.3038   71.5637   -4.0208 O.2     1  UNL1       -0.5170
     27 O          22.3531   72.7400   -6.2526 O.3     1  UNL1       -0.4371
     28 O          20.0873   72.2417   -5.0181 O.3     1  UNL1       -0.2865
     29 C          20.0518   70.9415   -5.6093 C.3     1  UNL1        0.2611
     30 C          18.8503   70.8477   -6.5514 C.3     1  UNL1        0.1582
     31 C          17.5676   71.1156   -5.7560 C.3     1  UNL1        0.1625
     32 C          17.5292   70.1665   -4.5536 C.3     1  UNL1        0.1686
     33 C          18.8293   70.3140   -3.7604 C.3     1  UNL1        0.1760
     34 O          16.4304   70.8845   -6.5894 O.3     1  UNL1       -0.3801
     35 O          16.4180   70.4977   -3.7186 O.3     1  UNL1       -0.3794
     36 O          19.9393   69.9574   -4.5835 O.3     1  UNL1       -0.3263
     37 H          15.6478   71.0647   -6.0505 H       1  UNL1        0.2105
     38 H          16.4320   69.8780   -2.9755 H       1  UNL1        0.2105
     39 C          18.7478   71.4977   -8.8968 C.2     1  UNL1        0.2231
     40 C          18.8862   72.5230   -9.9931 C.3     1  UNL1        0.0946
     41 N          18.9841   71.8435   -7.6166 N.am    1  UNL1       -0.2994
     42 O          18.4244   70.3608   -9.1673 O.2     1  UNL1       -0.2751
     43 H          19.2431   72.7531   -7.4000 H       1  UNL1        0.1496
     44 C          18.7872   69.3936   -2.5389 C.3     1  UNL1        0.1693
     45 O          19.9967   69.5376   -1.7915 O.3     1  UNL1       -0.3794
     46 H          19.9295   68.9421   -1.0329 H       1  UNL1        0.2105
@<TRIPOS>BOND
     1    29    30    1
     2    29    28    1
     3    29    36    1
     4    30    31    1
     5    30    41    1
     6    31    32    1
     7    31    34    1
     8    32    33    1
     9    32    35    1
    10    33    44    1
    11    33    36    1
    12    44    45    1
    13    39    40    1
    14    39    41   am
    15    39    42    2
    16    41    43    1
    17    28    25    1
    18    34    37    1
    19    35    38    1
    20    45    46    1
    21    15    16   ar
    22    15    20   ar
    23    15     6    1
    24    16    17   ar
    25    16    21    2
    26    17    18   ar
    27    17    23    1
    28    18    19   ar
    29    18    22    2
    30    19    20   ar
    31     6     7    1
    32     6    11    1
    33     7     8    1
    34     7     9    1
    35     8    13    1
    36     9    10    1
    37     9    12    1
    38    10    11    1
    39    10     5    1
    40    12    14    1
    41     5     4    1
    42     4     1    1
    43     1     2    2
    44     1     3    1
    45     1    24    1
    46    24    25    1
    47    25    26    2
    48    25    27    1
@<TRIPOS>MOLECULE
UD1
 46 48 0 0 0
SMALL
GASTEIGER

@<TRIPOS>ATOM
      1 P          22.0179   70.5404   -0.3786 P.3     1  UNL1        0.2189
      2 O          22.9452   71.2458   -1.2904 O.2     1  UNL1       -0.5170
      3 O          22.7019   69.1748    0.1313 O.3     1  UNL1       -0.4371
      4 O          20.6539   70.1962   -1.1622 O.3     1  UNL1       -0.3112
      5 C          20.8216   70.6528   -2.5052 C.3     1  UNL1        0.1811
      6 C          18.3607   71.0530   -5.0958 C.3     1  UNL1        0.2383
      7 C          17.9886   69.7144   -4.4103 C.3     1  UNL1        0.1895
      8 O          16.5808   69.4830   -4.4713 O.3     1  UNL1       -0.3779
      9 C          18.4465   69.9586   -2.9489 C.3     1  UNL1        0.1713
     10 C          19.4712   71.1037   -3.0640 C.3     1  UNL1        0.1764
     11 O          19.6019   71.4245   -4.4594 O.3     1  UNL1       -0.3308
     12 O          17.3381   70.3503   -2.1360 O.3     1  UNL1       -0.3794
     13 H          16.4164   68.6383   -4.0299 H       1  UNL1        0.2106
     14 H          16.7073   69.6182   -2.1524 H       1  UNL1        0.2105
     15 N          18.5544   70.8639   -6.5339 N.ar    1  UNL1       -0.2551
     16 C          17.4859   70.7973   -7.3470 C.ar    1  UNL1        0.3323
     17 N          17.6343   70.6279   -8.6742 N.ar    1  UNL1       -0.2743
     18 C          18.8658   70.5123   -9.2109 C.ar    1  UNL1        0.2626
     19 C          19.9992   70.5746   -8.3656 C.ar    1  UNL1        0.0795
     20 C          19.8217   70.7506   -7.0387 C.ar    1  UNL1        0.0869
     21 O          16.3687   70.9000   -6.8779 O.2     1  UNL1       -0.2464
     22 O          19.0010   70.3542  -10.4101 O.2     1  UNL1       -0.2670
     23 H          16.8526   70.5868   -9.2464 H       1  UNL1        0.1734
     24 O          21.6882   71.4808    0.8846 O.3     1  UNL1       -0.2703
     25 P          21.7115   72.9992    0.3523 P.3     1  UNL1        0.2208
     26 O          20.4708   73.2754   -0.4049 O.2     1  UNL1       -0.5170
     27 O          22.9850   73.2121   -0.6095 O.3     1  UNL1       -0.4371
     28 O          21.8116   74.0064    1.6038 O.3     1  UNL1       -0.2865
     29 C          20.8068   73.6080    2.5379 C.3     1  UNL1        0.2611
     30 C          19.8794   74.7920    2.8177 C.3     1  UNL1        0.1582
     31 C          20.7065   75.9555    3.3760 C.3     1  UNL1        0.1625
     32 C          21.5057   75.4537    4.5834 C.3     1  UNL1        0.1686
     33 C          22.3129   74.2214    4.1695 C.3     1  UNL1        0.1760
     34 O          19.8342   77.0122    3.7807 O.3     1  UNL1       -0.3801
     35 O          22.3935   76.4807    5.0291 O.3     1  UNL1       -0.3794
     36 O          21.4276   73.1839    3.7496 O.3     1  UNL1       -0.3263
     37 H          20.3950   77.7213    4.1242 H       1  UNL1        0.2105
     38 H          22.8763   76.1233    5.7878 H       1  UNL1        0.2105
     39 C          17.8838   75.3065    1.5189 C.2     1  UNL1        0.2231
     40 C          17.2115   75.7330    0.2389 C.3     1  UNL1        0.0946
     41 N          19.2259   75.2068    1.5747 N.am    1  UNL1       -0.2994
     42 O          17.2164   75.0523    2.4987 O.2     1  UNL1       -0.2751
     43 H          19.7602   75.4099    0.7906 H       1  UNL1        0.1496
     44 C          23.1400   73.7316    5.3599 C.3     1  UNL1        0.1693
     45 O          24.3960   74.4128    5.3802 O.3     1  UNL1       -0.3794
     46 H          24.8849   74.0756    6.1431 H       1  UNL1        0.2105
@<TRIPOS>BOND
     1    29    30    1
     2    29    28    1
     3    29    36    1
     4    30    31    1
     5    30    41    1
     6    31    32    1
     7    31    34    1
     8    32    33    1
     9    32    35    1
    10    33    44    1
    11    33    36    1
    12    44    45    1
    13    39    40    1
    14    39    41   am
    15    39    42    2
    16    41    43    1
    17    28    25    1
    18    34    37    1
    19    35    38    1
    20    45    46    1
    21    15    16   ar
    22    15    20   ar
    23    15     6    1
    24    16    17   ar
    25    16    21    2
    26    17    18   ar
    27    17    23    1
    28    18    19   ar
    29    18    22    2
    30    19    20   ar
    31     6     7    1
    32     6    11    1
    33     7     8    1
    34     7     9    1
    35     8    13    1
    36     9    10    1
    37     9    12    1
    38    10    11    1
    39    10     5    1
    40    12    14    1
    41     5     4    1
    42     4     1    1
    43     1     2    2
    44     1     3    1
    45     1    24    1
    46    24    25    1
    47    25    26    2
    48    25    27    1
@<TRIPOS>MOLECULE
UD1
 46 48 0 0 0
SMALL
GASTEIGER

@<TRIPOS>ATOM
      1 P          21.9217   70.8683   -0.6291 P.3     1  UNL1        0.2189
      2 O          22.6599   70.2824   -1.7695 O.2     1  UNL1       -0.5170
      3 O          21.5072   69.7004    0.3989 O.3     1  UNL1       -0.4371
      4 O          20.5942   71.6020   -1.1698 O.3     1  UNL1       -0.3112
      5 C          20.6605   71.5788   -2.5965 C.3     1  UNL1        0.1811
      6 C          18.1932   71.2094   -5.1856 C.3     1  UNL1        0.2383
      7 C          18.1276   69.8792   -4.3942 C.3     1  UNL1        0.1895
      8 O          16.8089   69.3319   -4.4228 O.3     1  UNL1       -0.3779
      9 C          18.5071   70.3339   -2.9609 C.3     1  UNL1        0.1713
     10 C          19.2475   71.6681   -3.1751 C.3     1  UNL1        0.1764
     11 O          19.3134   71.9001   -4.5925 O.3     1  UNL1       -0.3308
     12 O          17.3324   70.5276   -2.1700 O.3     1  UNL1       -0.3794
     13 H          16.8361   68.5090   -3.9153 H       1  UNL1        0.2106
     14 H          16.8834   69.6730   -2.1229 H       1  UNL1        0.2105
     15 N          18.4359   70.9571   -6.6064 N.ar    1  UNL1       -0.2551
     16 C          17.3950   70.7977   -7.4421 C.ar    1  UNL1        0.3323
     17 N          17.5885   70.5684   -8.7545 N.ar    1  UNL1       -0.2743
     18 C          18.8386   70.4853   -9.2526 C.ar    1  UNL1        0.2626
     19 C          19.9436   70.6452   -8.3830 C.ar    1  UNL1        0.0795
     20 C          19.7209   70.8796   -7.0720 C.ar    1  UNL1        0.0869
     21 O          16.2615   70.8699   -7.0079 O.2     1  UNL1       -0.2464
     22 O          19.0147   70.2733  -10.4381 O.2     1  UNL1       -0.2670
     23 H          16.8259   70.4606   -9.3437 H       1  UNL1        0.1734
     24 O          22.8579   71.9391    0.1230 O.3     1  UNL1       -0.2703
     25 P          21.9039   72.7782    1.1104 P.3     1  UNL1        0.2208
     26 O          20.7529   71.9407    1.5137 O.2     1  UNL1       -0.5170
     27 O          21.3694   74.0939    0.3518 O.3     1  UNL1       -0.4371
     28 O          22.7342   73.2147    2.4183 O.3     1  UNL1       -0.2865
     29 C          22.5145   74.6146    2.6006 C.3     1  UNL1        0.2611
     30 C          23.6719   75.2066    3.4068 C.3     1  UNL1        0.1582
     31 C          23.7576   74.4916    4.7600 C.3     1  UNL1        0.1625
     32 C          22.3860   74.5627    5.4396 C.3     1  UNL1        0.1686
     33 C          21.3259   74.0163    4.4810 C.3     1  UNL1        0.1760
     34 O          24.7358   75.1338    5.5798 O.3     1  UNL1       -0.3801
     35 O          22.4029   73.7777    6.6334 O.3     1  UNL1       -0.3794
     36 O          21.2874   74.8148    3.2989 O.3     1  UNL1       -0.3263
     37 H          24.7567   74.6527    6.4185 H       1  UNL1        0.2105
     38 H          21.5222   73.8496    7.0280 H       1  UNL1        0.2105
     39 C          25.3867   75.9959    1.8671 C.2     1  UNL1        0.2231
     40 C          26.6770   75.8036    1.1118 C.3     1  UNL1        0.0946
     41 N          24.9256   75.0204    2.6733 N.am    1  UNL1       -0.2994
     42 O          24.7629   77.0289    1.7484 O.2     1  UNL1       -0.2751
     43 H          25.4244   74.1936    2.7683 H       1  UNL1        0.1496
     44 C          19.9565   74.0527    5.1626 C.3     1  UNL1        0.1693
     45 O          19.1297   73.0175    4.6270 O.3     1  UNL1       -0.3794
     46 H          18.2786   73.0756    5.0819 H       1  UNL1        0.2105
@<TRIPOS>BOND
     1    29    30    1
     2    29    28    1
     3    29    36    1
     4    30    31    1
     5    30    41    1
     6    31    32    1
     7    31    34    1
     8    32    33    1
     9    32    35    1
    10    33    44    1
    11    33    36    1
    12    44    45    1
    13    39    40    1
    14    39    41   am
    15    39    42    2
    16    41    43    1
    17    28    25    1
    18    34    37    1
    19    35    38    1
    20    45    46    1
    21    15    16   ar
    22    15    20   ar
    23    15     6    1
    24    16    17   ar
    25    16    21    2
    26    17    18   ar
    27    17    23    1
    28    18    19   ar
    29    18    22    2
    30    19    20   ar
    31     6     7    1
    32     6    11    1
    33     7     8    1
    34     7     9    1
    35     8    13    1
    36     9    10    1
    37     9    12    1
    38    10    11    1
    39    10     5    1
    40    12    14    1
    41     5     4    1
    42     4     1    1
    43     1     2    2
    44     1     3    1
    45     1    24    1
    46    24    25    1
    47    25    26    2
    48    25    27    1
@<TRIPOS>MOLECULE
UD1
 46 48 0 0 0
SMALL
GASTEIGER

@<TRIPOS>ATOM
      1 P          21.9957   73.9821   -6.2789 P.3     1  UNL1        0.2189
      2 O          22.9276   75.1279   -6.1929 O.2     1  UNL1       -0.5170
      3 O          22.7711   72.7031   -6.8751 O.3     1  UNL1       -0.4371
      4 O          20.7664   74.3624   -7.2469 O.3     1  UNL1       -0.3112
      5 C          20.9174   73.5820   -8.4337 C.3     1  UNL1        0.1811
      6 C          18.4406   71.2582   -7.2537 C.3     1  UNL1        0.2383
      7 C          17.7619   72.6453   -7.1293 C.3     1  UNL1        0.1895
      8 O          16.3491   72.5410   -7.3088 O.3     1  UNL1       -0.3779
      9 C          18.4116   73.4317   -8.2974 C.3     1  UNL1        0.1713
     10 C          19.7101   72.6568   -8.5939 C.3     1  UNL1        0.1764
     11 O          19.7921   71.5777   -7.6472 O.3     1  UNL1       -0.3308
     12 O          17.5512   73.4341   -9.4387 O.3     1  UNL1       -0.3794
     13 H          15.9886   73.4341   -7.2193 H       1  UNL1        0.2106
     14 H          16.7354   73.8787   -9.1724 H       1  UNL1        0.2105
     15 N          18.4290   70.5572   -5.9692 N.ar    1  UNL1       -0.2551
     16 C          17.3448   69.8503   -5.6056 C.ar    1  UNL1        0.3323
     17 N          17.3080   69.1924   -4.4317 N.ar    1  UNL1       -0.2743
     18 C          18.3622   69.2404   -3.5925 C.ar    1  UNL1        0.2626
     19 C          19.5077   69.9858   -3.9601 C.ar    1  UNL1        0.0795
     20 C          19.5200   70.6318   -5.1458 C.ar    1  UNL1        0.0869
     21 O          16.3862   69.7975   -6.3518 O.2     1  UNL1       -0.2464
     22 O          18.3280   68.6499   -2.5288 O.2     1  UNL1       -0.2670
     23 H          16.5195   68.6835   -4.1877 H       1  UNL1        0.1734
     24 O          21.4352   73.6349   -4.8112 O.3     1  UNL1       -0.2703
     25 P          22.7171   73.4293   -3.8606 P.3     1  UNL1        0.2208
     26 O          23.7513   74.4301   -4.2040 O.2     1  UNL1       -0.5170
     27 O          23.3124   71.9487   -4.0740 O.3     1  UNL1       -0.4371
     28 O          22.2813   73.6143   -2.3223 O.3     1  UNL1       -0.2865
     29 C          21.0711   72.8765   -2.1428 C.3     1  UNL1        0.2611
     30 C          20.1736   73.6131   -1.1468 C.3     1  UNL1        0.1582
     31 C          20.9189   73.7624    0.1843 C.3     1  UNL1        0.1625
     32 C          21.3962   72.3783    0.6366 C.3     1  UNL1        0.1686
     33 C          22.2043   71.7361   -0.4930 C.3     1  UNL1        0.1760
     34 O          20.0396   74.3138    1.1662 O.3     1  UNL1       -0.3801
     35 O          22.2181   72.5121    1.7977 O.3     1  UNL1       -0.3794
     36 O          21.3784   71.5758   -1.6457 O.3     1  UNL1       -0.3263
     37 H          20.5483   74.3905    1.9852 H       1  UNL1        0.2105
     38 H          22.4968   71.6197    2.0476 H       1  UNL1        0.2105
     39 C          20.5961   76.0040   -1.3454 C.2     1  UNL1        0.2231
     40 C          20.2530   77.3679   -1.8881 C.3     1  UNL1        0.0946
     41 N          19.8410   74.9382   -1.6741 N.am    1  UNL1       -0.2994
     42 O          21.5519   75.8661   -0.6122 O.2     1  UNL1       -0.2751
     43 H          19.0759   75.0483   -2.2607 H       1  UNL1        0.1496
     44 C          22.7132   70.3663   -0.0392 C.3     1  UNL1        0.1693
     45 O          21.6842   69.6922    0.6879 O.3     1  UNL1       -0.3794
     46 H          22.0451   68.8361    0.9550 H       1  UNL1        0.2105
@<TRIPOS>BOND
     1    29    30    1
     2    29    28    1
     3    29    36    1
     4    30    31    1
     5    30    41    1
     6    31    32    1
     7    31    34    1
     8    32    33    1
     9    32    35    1
    10    33    44    1
    11    33    36    1
    12    44    45    1
    13    39    40    1
    14    39    41   am
    15    39    42    2
    16    41    43    1
    17    28    25    1
    18    34    37    1
    19    35    38    1
    20    45    46    1
    21    15    16   ar
    22    15    20   ar
    23    15     6    1
    24    16    17   ar
    25    16    21    2
    26    17    18   ar
    27    17    23    1
    28    18    19   ar
    29    18    22    2
    30    19    20   ar
    31     6     7    1
    32     6    11    1
    33     7     8    1
    34     7     9    1
    35     8    13    1
    36     9    10    1
    37     9    12    1
    38    10    11    1
    39    10     5    1
    40    12    14    1
    41     5     4    1
    42     4     1    1
    43     1     2    2
    44     1     3    1
    45     1    24    1
    46    24    25    1
    47    25    26    2
    48    25    27    1
@<TRIPOS>MOLECULE
UD1
 46 48 0 0 0
SMALL
GASTEIGER

@<TRIPOS>ATOM
      1 P          21.5371   71.2558   -0.2559 P.3     1  UNL1        0.2189
      2 O          22.9828   71.4974   -0.4565 O.2     1  UNL1       -0.5170
      3 O          21.2062   69.7073   -0.5476 O.3     1  UNL1       -0.4371
      4 O          20.6934   72.1834   -1.2661 O.3     1  UNL1       -0.3112
      5 C          20.6173   71.4808   -2.5074 C.3     1  UNL1        0.1811
      6 C          18.1764   71.2672   -5.1387 C.3     1  UNL1        0.2383
      7 C          18.0184   69.9408   -4.3540 C.3     1  UNL1        0.1895
      8 O          16.6702   69.4731   -4.4068 O.3     1  UNL1       -0.3779
      9 C          18.4001   70.3676   -2.9127 C.3     1  UNL1        0.1713
     10 C          19.2222   71.6560   -3.1091 C.3     1  UNL1        0.1764
     11 O          19.3256   71.8881   -4.5243 O.3     1  UNL1       -0.3308
     12 O          17.2259   70.6284   -2.1406 O.3     1  UNL1       -0.3794
     13 H          16.6397   68.6485   -3.9023 H       1  UNL1        0.2106
     14 H          16.7261   69.8019   -2.1045 H       1  UNL1        0.2105
     15 N          18.4275   71.0054   -6.5563 N.ar    1  UNL1       -0.2551
     16 C          17.3915   70.8505   -7.3990 C.ar    1  UNL1        0.3323
     17 N          17.5927   70.6127   -8.7086 N.ar    1  UNL1       -0.2743
     18 C          18.8458   70.5162   -9.1970 C.ar    1  UNL1        0.2626
     19 C          19.9456   70.6712   -8.3199 C.ar    1  UNL1        0.0795
     20 C          19.7151   70.9144   -7.0118 C.ar    1  UNL1        0.0869
     21 O          16.2554   70.9348   -6.9736 O.2     1  UNL1       -0.2464
     22 O          19.0290   70.2965  -10.3800 O.2     1  UNL1       -0.2670
     23 H          16.8338   70.5084   -9.3030 H       1  UNL1        0.1734
     24 O          21.1385   71.6143    1.2612 O.3     1  UNL1       -0.2703
     25 P          21.2357   73.2143    1.4017 P.3     1  UNL1        0.2208
     26 O          20.3480   73.8517    0.4044 O.2     1  UNL1       -0.5170
     27 O          22.7540   73.6850    1.1461 O.3     1  UNL1       -0.4371
     28 O          20.7815   73.6528    2.8822 O.3     1  UNL1       -0.2865
     29 C          20.5592   75.0637    2.8468 C.3     1  UNL1        0.2611
     30 C          21.3071   75.7220    4.0075 C.3     1  UNL1        0.1582
     31 C          20.8049   75.1282    5.3284 C.3     1  UNL1        0.1625
     32 C          19.2791   75.2610    5.3768 C.3     1  UNL1        0.1686
     33 C          18.6840   74.6345    4.1140 C.3     1  UNL1        0.1760
     34 O          21.3856   75.8380    6.4240 O.3     1  UNL1       -0.3801
     35 O          18.7767   74.5836    6.5303 O.3     1  UNL1       -0.3794
     36 O          19.1624   75.3264    2.9612 O.3     1  UNL1       -0.3263
     37 H          21.0436   75.4323    7.2325 H       1  UNL1        0.2105
     38 H          17.8151   74.6914    6.5213 H       1  UNL1        0.2105
     39 C          23.3155   74.4499    4.5386 C.2     1  UNL1        0.2231
     40 C          24.7939   74.1913    4.3981 C.3     1  UNL1        0.0946
     41 N          22.7431   75.4701    3.8709 N.am    1  UNL1       -0.2994
     42 O          22.6411   73.7398    5.2536 O.2     1  UNL1       -0.2751
     43 H          23.2826   76.0386    3.2989 H       1  UNL1        0.1496
     44 C          17.1580   74.7330    4.1677 C.3     1  UNL1        0.1693
     45 O          16.7813   75.9228    4.8637 O.3     1  UNL1       -0.3794
     46 H          15.8149   75.9461    4.8752 H       1  UNL1        0.2105
@<TRIPOS>BOND
     1    29    30    1
     2    29    28    1
     3    29    36    1
     4    30    31    1
     5    30    41    1
     6    31    32    1
     7    31    34    1
     8    32    33    1
     9    32    35    1
    10    33    44    1
    11    33    36    1
    12    44    45    1
    13    39    40    1
    14    39    41   am
    15    39    42    2
    16    41    43    1
    17    28    25    1
    18    34    37    1
    19    35    38    1
    20    45    46    1
    21    15    16   ar
    22    15    20   ar
    23    15     6    1
    24    16    17   ar
    25    16    21    2
    26    17    18   ar
    27    17    23    1
    28    18    19   ar
    29    18    22    2
    30    19    20   ar
    31     6     7    1
    32     6    11    1
    33     7     8    1
    34     7     9    1
    35     8    13    1
    36     9    10    1
    37     9    12    1
    38    10    11    1
    39    10     5    1
    40    12    14    1
    41     5     4    1
    42     4     1    1
    43     1     2    2
    44     1     3    1
    45     1    24    1
    46    24    25    1
    47    25    26    2
    48    25    27    1
@<TRIPOS>MOLECULE
UD1
 46 48 0 0 0
SMALL
GASTEIGER

@<TRIPOS>ATOM
      1 P          22.8948   72.1091   -3.3072 P.3     1  UNL1        0.2189
      2 O          23.3767   70.7107   -3.2744 O.2     1  UNL1       -0.5170
      3 O          23.9269   73.0127   -4.1503 O.3     1  UNL1       -0.4371
      4 O          22.7913   72.6758   -1.8035 O.3     1  UNL1       -0.3112
      5 C          23.0544   74.0781   -1.8707 C.3     1  UNL1        0.1811
      6 C          19.6557   74.5480   -0.7959 C.3     1  UNL1        0.2383
      7 C          20.3571   73.8824    0.4145 C.3     1  UNL1        0.1895
      8 O          19.7656   74.3049    1.6437 O.3     1  UNL1       -0.3779
      9 C          21.8070   74.4175    0.2854 C.3     1  UNL1        0.1713
     10 C          21.9184   74.8442   -1.1911 C.3     1  UNL1        0.1764
     11 O          20.6674   74.5279   -1.8253 O.3     1  UNL1       -0.3308
     12 O          22.0066   75.5359    1.1525 O.3     1  UNL1       -0.3794
     13 H          20.2451   73.8565    2.3540 H       1  UNL1        0.2106
     14 H          21.8651   75.2188    2.0545 H       1  UNL1        0.2105
     15 N          18.4846   73.7733   -1.2081 N.ar    1  UNL1       -0.2551
     16 C          17.2577   74.1635   -0.8211 C.ar    1  UNL1        0.3323
     17 N          16.1624   73.4724   -1.1886 N.ar    1  UNL1       -0.2743
     18 C          16.2811   72.3649   -1.9483 C.ar    1  UNL1        0.2626
     19 C          17.5672   71.9394   -2.3578 C.ar    1  UNL1        0.0795
     20 C          18.6484   72.6543   -1.9793 C.ar    1  UNL1        0.0869
     21 O          17.1344   75.1604   -0.1358 O.2     1  UNL1       -0.2464
     22 O          15.2919   71.7365   -2.2772 O.2     1  UNL1       -0.2670
     23 H          15.2848   73.7710   -0.9044 H       1  UNL1        0.1734
     24 O          21.4440   72.1607   -4.0010 O.3     1  UNL1       -0.2703
     25 P          21.5928   73.0662   -5.3228 P.3     1  UNL1        0.2208
     26 O          22.7891   72.6389   -6.0812 O.2     1  UNL1       -0.5170
     27 O          21.7501   74.6119   -4.9004 O.3     1  UNL1       -0.4371
     28 O          20.2839   72.8935   -6.2433 O.3     1  UNL1       -0.2865
     29 C          20.3140   71.5622   -6.7610 C.3     1  UNL1        0.2611
     30 C          20.2802   71.6138   -8.2894 C.3     1  UNL1        0.1582
     31 C          19.0074   72.3403   -8.7384 C.3     1  UNL1        0.1625
     32 C          17.7994   71.6637   -8.0820 C.3     1  UNL1        0.1686
     33 C          18.0190   71.6111   -6.5687 C.3     1  UNL1        0.1760
     34 O          18.8890   72.2644  -10.1603 O.3     1  UNL1       -0.3801
     35 O          16.6173   72.4133   -8.3691 O.3     1  UNL1       -0.3794
     36 O          19.1838   70.8399   -6.2770 O.3     1  UNL1       -0.3263
     37 H          18.0772   72.7331  -10.3985 H       1  UNL1        0.2105
     38 H          15.8830   71.9538   -7.9374 H       1  UNL1        0.2105
     39 C          21.3851   73.6587   -9.0188 C.2     1  UNL1        0.2231
     40 C          22.5956   74.4003   -9.5257 C.3     1  UNL1        0.0946
     41 N          21.4561   72.3347   -8.7814 N.am    1  UNL1       -0.2994
     42 O          20.3466   74.2539   -8.8252 O.2     1  UNL1       -0.2751
     43 H          22.2870   71.8582   -8.9364 H       1  UNL1        0.1496
     44 C          16.8031   70.9661   -5.9002 C.3     1  UNL1        0.1693
     45 O          16.2770   69.9454   -6.7508 O.3     1  UNL1       -0.3794
     46 H          15.5143   69.5658   -6.2938 H       1  UNL1        0.2105
@<TRIPOS>BOND
     1    29    30    1
     2    29    28    1
     3    29    36    1
     4    30    31    1
     5    30    41    1
     6    31    32    1
     7    31    34    1
     8    32    33    1
     9    32    35    1
    10    33    44    1
    11    33    36    1
    12    44    45    1
    13    39    40    1
    14    39    41   am
    15    39    42    2
    16    41    43    1
    17    28    25    1
    18    34    37    1
    19    35    38    1
    20    45    46    1
    21    15    16   ar
    22    15    20   ar
    23    15     6    1
    24    16    17   ar
    25    16    21    2
    26    17    18   ar
    27    17    23    1
    28    18    19   ar
    29    18    22    2
    30    19    20   ar
    31     6     7    1
    32     6    11    1
    33     7     8    1
    34     7     9    1
    35     8    13    1
    36     9    10    1
    37     9    12    1
    38    10    11    1
    39    10     5    1
    40    12    14    1
    41     5     4    1
    42     4     1    1
    43     1     2    2
    44     1     3    1
    45     1    24    1
    46    24    25    1
    47    25    26    2
    48    25    27    1
@<TRIPOS>MOLECULE
UD1
 46 48 0 0 0
SMALL
GASTEIGER

@<TRIPOS>ATOM
      1 P          22.0035   71.8351   -3.6311 P.3     1  UNL1        0.2189
      2 O          20.7286   71.0926   -3.7420 O.2     1  UNL1       -0.5170
      3 O          23.1960   70.8068   -3.2946 O.3     1  UNL1       -0.4371
      4 O          21.8879   72.9256   -2.4520 O.3     1  UNL1       -0.3112
      5 C          21.4847   72.2224   -1.2759 C.3     1  UNL1        0.1811
      6 C          23.2055   72.1628    1.8805 C.3     1  UNL1        0.2383
      7 C          22.6728   70.7191    1.7015 C.3     1  UNL1        0.1895
      8 O          23.5386   69.7732    2.3299 O.3     1  UNL1       -0.3779
      9 C          22.6965   70.5520    0.1598 C.3     1  UNL1        0.1713
     10 C          22.6989   71.9978   -0.3734 C.3     1  UNL1        0.1764
     11 O          22.6320   72.8752    0.7637 O.3     1  UNL1       -0.3308
     12 O          23.8772   69.8588   -0.2502 O.3     1  UNL1       -0.3794
     13 H          23.1521   68.8988    2.1829 H       1  UNL1        0.2106
     14 H          23.8459   68.9855    0.1627 H       1  UNL1        0.2105
     15 N          22.7455   72.7328    3.1473 N.ar    1  UNL1       -0.2551
     16 C          21.4559   72.6065    3.5056 C.ar    1  UNL1        0.3323
     17 N          21.0059   73.1174    4.6670 N.ar    1  UNL1       -0.2743
     18 C          21.8461   73.7764    5.4902 C.ar    1  UNL1        0.2626
     19 C          23.2050   73.9219    5.1226 C.ar    1  UNL1        0.0795
     20 C          23.6309   73.3950    3.9545 C.ar    1  UNL1        0.0869
     21 O          20.6860   72.0148    2.7737 O.2     1  UNL1       -0.2464
     22 O          21.4393   74.2429    6.5382 O.2     1  UNL1       -0.2670
     23 H          20.0736   73.0128    4.9117 H       1  UNL1        0.1734
     24 O          22.3131   72.5806   -5.0229 O.3     1  UNL1       -0.2703
     25 P          21.2928   73.8209   -5.1229 P.3     1  UNL1        0.2208
     26 O          21.9659   74.9612   -5.7829 O.2     1  UNL1       -0.5170
     27 O          20.8288   74.2557   -3.6438 O.3     1  UNL1       -0.4371
     28 O          20.0030   73.3884   -5.9830 O.3     1  UNL1       -0.2865
     29 C          20.4720   72.5498   -7.0404 C.3     1  UNL1        0.2611
     30 C          20.1304   73.1940   -8.3851 C.3     1  UNL1        0.1582
     31 C          18.6123   73.3844   -8.4784 C.3     1  UNL1        0.1625
     32 C          17.9320   72.0381   -8.2088 C.3     1  UNL1        0.1686
     33 C          18.4373   71.4826   -6.8756 C.3     1  UNL1        0.1760
     34 O          18.2671   73.8458   -9.7858 O.3     1  UNL1       -0.3801
     35 O          16.5164   72.2221   -8.1457 O.3     1  UNL1       -0.3794
     36 O          19.8470   71.2718   -6.9444 O.3     1  UNL1       -0.3263
     37 H          17.3059   73.9520   -9.7998 H       1  UNL1        0.2105
     38 H          16.1287   71.3522   -7.9741 H       1  UNL1        0.2105
     39 C          21.9910   74.5944   -9.1002 C.2     1  UNL1        0.2231
     40 C          22.6752   75.9335   -9.2057 C.3     1  UNL1        0.0946
     41 N          20.7952   74.4947   -8.4883 N.am    1  UNL1       -0.2994
     42 O          22.5173   73.6063   -9.5658 O.2     1  UNL1       -0.2751
     43 H          20.3739   75.2852   -8.1154 H       1  UNL1        0.1496
     44 C          17.7394   70.1531   -6.5812 C.3     1  UNL1        0.1693
     45 O          16.5098   70.4015   -5.8967 O.3     1  UNL1       -0.3794
     46 H          16.1032   69.5403   -5.7304 H       1  UNL1        0.2105
@<TRIPOS>BOND
     1    29    30    1
     2    29    28    1
     3    29    36    1
     4    30    31    1
     5    30    41    1
     6    31    32    1
     7    31    34    1
     8    32    33    1
     9    32    35    1
    10    33    44    1
    11    33    36    1
    12    44    45    1
    13    39    40    1
    14    39    41   am
    15    39    42    2
    16    41    43    1
    17    28    25    1
    18    34    37    1
    19    35    38    1
    20    45    46    1
    21    15    16   ar
    22    15    20   ar
    23    15     6    1
    24    16    17   ar
    25    16    21    2
    26    17    18   ar
    27    17    23    1
    28    18    19   ar
    29    18    22    2
    30    19    20   ar
    31     6     7    1
    32     6    11    1
    33     7     8    1
    34     7     9    1
    35     8    13    1
    36     9    10    1
    37     9    12    1
    38    10    11    1
    39    10     5    1
    40    12    14    1
    41     5     4    1
    42     4     1    1
    43     1     2    2
    44     1     3    1
    45     1    24    1
    46    24    25    1
    47    25    26    2
    48    25    27    1
@<TRIPOS>MOLECULE
UD1
 46 48 0 0 0
SMALL
GASTEIGER

@<TRIPOS>ATOM
      1 P          22.8596   71.9480   -3.3306 P.3     1  UNL1        0.2189
      2 O          23.4420   70.5954   -3.1894 O.2     1  UNL1       -0.5170
      3 O          23.8892   72.8953   -4.1276 O.3     1  UNL1       -0.4371
      4 O          22.5824   72.5674   -1.8703 O.3     1  UNL1       -0.3112
      5 C          22.2036   71.4803   -1.0247 C.3     1  UNL1        0.1811
      6 C          21.1459   73.1933    1.9542 C.3     1  UNL1        0.2383
      7 C          20.9938   74.2451    0.8269 C.3     1  UNL1        0.1895
      8 O          19.9266   75.1499    1.1126 O.3     1  UNL1       -0.3779
      9 C          20.6553   73.3600   -0.4008 C.3     1  UNL1        0.1713
     10 C          21.1684   71.9614   -0.0069 C.3     1  UNL1        0.1764
     11 O          21.7758   72.0765    1.2912 O.3     1  UNL1       -0.3308
     12 O          19.2442   73.3369   -0.6270 O.3     1  UNL1       -0.3794
     13 H          19.8855   75.7759    0.3764 H       1  UNL1        0.2106
     14 H          18.9756   74.2473   -0.8090 H       1  UNL1        0.2105
     15 N          21.9982   73.7033    3.0289 N.ar    1  UNL1       -0.2551
     16 C          23.1951   74.2391    2.7326 C.ar    1  UNL1        0.3323
     17 N          23.9982   74.7195    3.7003 N.ar    1  UNL1       -0.2743
     18 C          23.6153   74.6617    4.9919 C.ar    1  UNL1        0.2626
     19 C          22.3604   74.0948    5.3184 C.ar    1  UNL1        0.0795
     20 C          21.5724   73.6253    4.3275 C.ar    1  UNL1        0.0869
     21 O          23.5544   74.2983    1.5724 O.2     1  UNL1       -0.2464
     22 O          24.3427   75.0914    5.8681 O.2     1  UNL1       -0.2670
     23 H          24.8562   75.1069    3.4681 H       1  UNL1        0.1734
     24 O          21.4751   71.8539   -4.1449 O.3     1  UNL1       -0.2703
     25 P          21.5318   72.9826   -5.2903 P.3     1  UNL1        0.2208
     26 O          22.7688   72.8173   -6.0849 O.2     1  UNL1       -0.5170
     27 O          21.5238   74.4411   -4.6084 O.3     1  UNL1       -0.4371
     28 O          20.2513   72.8356   -6.2543 O.3     1  UNL1       -0.2865
     29 C          20.2987   71.5196   -6.8085 C.3     1  UNL1        0.2611
     30 C          20.2605   71.6128   -8.3349 C.3     1  UNL1        0.1582
     31 C          18.9766   72.3335   -8.7612 C.3     1  UNL1        0.1625
     32 C          17.7797   71.6222   -8.1213 C.3     1  UNL1        0.1686
     33 C          18.0036   71.5311   -6.6104 C.3     1  UNL1        0.1760
     34 O          18.8559   72.2951  -10.1843 O.3     1  UNL1       -0.3801
     35 O          16.5866   72.3629   -8.3852 O.3     1  UNL1       -0.3794
     36 O          19.1797   70.7685   -6.3424 O.3     1  UNL1       -0.3263
     37 H          18.0371   72.7588  -10.4079 H       1  UNL1        0.2105
     38 H          15.8599   71.8815   -7.9649 H       1  UNL1        0.2105
     39 C          21.3349   73.6921   -9.0106 C.2     1  UNL1        0.2231
     40 C          22.5337   74.4642   -9.4993 C.3     1  UNL1        0.0946
     41 N          21.4250   72.3634   -8.8092 N.am    1  UNL1       -0.2994
     42 O          20.2884   74.2670   -8.7994 O.2     1  UNL1       -0.2751
     43 H          22.2623   71.9030   -8.9784 H       1  UNL1        0.1496
     44 C          16.7985   70.8510   -5.9575 C.3     1  UNL1        0.1693
     45 O          16.1254   70.0426   -6.9248 O.3     1  UNL1       -0.3794
     46 H          15.3745   69.6335   -6.4738 H       1  UNL1        0.2105
@<TRIPOS>BOND
     1    29    30    1
     2    29    28    1
     3    29    36    1
     4    30    31    1
     5    30    41    1
     6    31    32    1
     7    31    34    1
     8    32    33    1
     9    32    35    1
    10    33    44    1
    11    33    36    1
    12    44    45    1
    13    39    40    1
    14    39    41   am
    15    39    42    2
    16    41    43    1
    17    28    25    1
    18    34    37    1
    19    35    38    1
    20    45    46    1
    21    15    16   ar
    22    15    20   ar
    23    15     6    1
    24    16    17   ar
    25    16    21    2
    26    17    18   ar
    27    17    23    1
    28    18    19   ar
    29    18    22    2
    30    19    20   ar
    31     6     7    1
    32     6    11    1
    33     7     8    1
    34     7     9    1
    35     8    13    1
    36     9    10    1
    37     9    12    1
    38    10    11    1
    39    10     5    1
    40    12    14    1
    41     5     4    1
    42     4     1    1
    43     1     2    2
    44     1     3    1
    45     1    24    1
    46    24    25    1
    47    25    26    2
    48    25    27    1
@<TRIPOS>MOLECULE
UD1
 46 48 0 0 0
SMALL
GASTEIGER

@<TRIPOS>ATOM
      1 P          22.1707   70.4781   -0.3504 P.3     1  UNL1        0.2189
      2 O          22.9579   71.4745   -1.1096 O.2     1  UNL1       -0.5170
      3 O          23.1682   69.5290    0.4842 O.3     1  UNL1       -0.4371
      4 O          21.3101   69.5818   -1.3746 O.3     1  UNL1       -0.3112
      5 C          21.3141   70.2666   -2.6281 C.3     1  UNL1        0.1811
      6 C          18.6160   70.6926   -4.9661 C.3     1  UNL1        0.2383
      7 C          18.4615   69.2379   -4.4559 C.3     1  UNL1        0.1895
      8 O          17.0903   68.8392   -4.4560 O.3     1  UNL1       -0.3779
      9 C          19.0079   69.3409   -3.0081 C.3     1  UNL1        0.1713
     10 C          19.8783   70.6123   -3.0260 C.3     1  UNL1        0.1764
     11 O          19.8539   71.1309   -4.3667 O.3     1  UNL1       -0.3308
     12 O          17.9328   69.4758   -2.0761 O.3     1  UNL1       -0.3794
     13 H          17.0633   67.9290   -4.1300 H       1  UNL1        0.2106
     14 H          17.3929   68.6780   -2.1551 H       1  UNL1        0.2105
     15 N          18.7100   70.7238   -6.4261 N.ar    1  UNL1       -0.2551
     16 C          17.5883   70.6979   -7.1667 C.ar    1  UNL1        0.3323
     17 N          17.6446   70.7295   -8.5113 N.ar    1  UNL1       -0.2743
     18 C          18.8360   70.7787   -9.1405 C.ar    1  UNL1        0.2626
     19 C          20.0250   70.8004   -8.3732 C.ar    1  UNL1        0.0795
     20 C          19.9394   70.7732   -7.0259 C.ar    1  UNL1        0.0869
     21 O          16.5062   70.6537   -6.6137 O.2     1  UNL1       -0.2464
     22 O          18.8883   70.8025  -10.3563 O.2     1  UNL1       -0.2670
     23 H          16.8252   70.7150   -9.0296 H       1  UNL1        0.1734
     24 O          21.1778   71.2376    0.6626 O.3     1  UNL1       -0.2703
     25 P          21.4191   72.8149    0.4551 P.3     1  UNL1        0.2208
     26 O          22.8659   73.1092    0.5504 O.2     1  UNL1       -0.5170
     27 O          20.6294   73.6338    1.5944 O.3     1  UNL1       -0.4371
     28 O          20.8763   73.2560   -0.9945 O.3     1  UNL1       -0.2865
     29 C          21.4049   74.5571   -1.2567 C.3     1  UNL1        0.2611
     30 C          20.2689   75.4861   -1.6886 C.3     1  UNL1        0.1582
     31 C          19.6002   74.9110   -2.9422 C.3     1  UNL1        0.1625
     32 C          20.6782   74.6626   -4.0026 C.3     1  UNL1        0.1686
     33 C          21.7819   73.7931   -3.3969 C.3     1  UNL1        0.1760
     34 O          18.6381   75.8419   -3.4416 O.3     1  UNL1       -0.3801
     35 O          20.1001   73.9914   -5.1237 O.3     1  UNL1       -0.3794
     36 O          22.3801   74.4724   -2.2936 O.3     1  UNL1       -0.3263
     37 H          18.2428   75.4405   -4.2276 H       1  UNL1        0.2105
     38 H          20.8117   73.8544   -5.7651 H       1  UNL1        0.2105
     39 C          18.1859   74.8084   -0.6227 C.2     1  UNL1        0.2231
     40 C          17.1715   74.9151    0.4872 C.3     1  UNL1        0.0946
     41 N          19.2834   75.5891   -0.6103 N.am    1  UNL1       -0.2994
     42 O          18.0137   74.0200   -1.5277 O.2     1  UNL1       -0.2751
     43 H          19.4214   76.2202    0.1137 H       1  UNL1        0.1496
     44 C          22.8480   73.5120   -4.4579 C.3     1  UNL1        0.1693
     45 O          23.7927   72.5697   -3.9466 O.3     1  UNL1       -0.3794
     46 H          24.4453   72.4211   -4.6442 H       1  UNL1        0.2105
@<TRIPOS>BOND
     1    29    30    1
     2    29    28    1
     3    29    36    1
     4    30    31    1
     5    30    41    1
     6    31    32    1
     7    31    34    1
     8    32    33    1
     9    32    35    1
    10    33    44    1
    11    33    36    1
    12    44    45    1
    13    39    40    1
    14    39    41   am
    15    39    42    2
    16    41    43    1
    17    28    25    1
    18    34    37    1
    19    35    38    1
    20    45    46    1
    21    15    16   ar
    22    15    20   ar
    23    15     6    1
    24    16    17   ar
    25    16    21    2
    26    17    18   ar
    27    17    23    1
    28    18    19   ar
    29    18    22    2
    30    19    20   ar
    31     6     7    1
    32     6    11    1
    33     7     8    1
    34     7     9    1
    35     8    13    1
    36     9    10    1
    37     9    12    1
    38    10    11    1
    39    10     5    1
    40    12    14    1
    41     5     4    1
    42     4     1    1
    43     1     2    2
    44     1     3    1
    45     1    24    1
    46    24    25    1
    47    25    26    2
    48    25    27    1
@<TRIPOS>MOLECULE
UD1
 46 48 0 0 0
SMALL
GASTEIGER

@<TRIPOS>ATOM
      1 P          22.7878   71.8509   -3.3825 P.3     1  UNL1        0.2189
      2 O          23.5023   70.5719   -3.1765 O.2     1  UNL1       -0.5170
      3 O          23.7257   72.8619   -4.2135 O.3     1  UNL1       -0.4371
      4 O          22.4319   72.5024   -1.9536 O.3     1  UNL1       -0.3112
      5 C          21.7263   71.5080   -1.2095 C.3     1  UNL1        0.1811
      6 C          21.3263   73.3994    1.8219 C.3     1  UNL1        0.2383
      7 C          21.2589   74.4577    0.6924 C.3     1  UNL1        0.1895
      8 O          20.4171   75.5495    1.0645 O.3     1  UNL1       -0.3779
      9 C          20.6337   73.6494   -0.4742 C.3     1  UNL1        0.1713
     10 C          20.9120   72.1799   -0.1029 C.3     1  UNL1        0.1764
     11 O          21.6619   72.1814    1.1238 O.3     1  UNL1       -0.3308
     12 O          19.2279   73.8940   -0.5554 O.3     1  UNL1       -0.3794
     13 H          20.4184   76.1698    0.3224 H       1  UNL1        0.2106
     14 H          19.1184   74.8383   -0.7297 H       1  UNL1        0.2105
     15 N          22.3667   73.7414    2.7926 N.ar    1  UNL1       -0.2551
     16 C          23.4924   74.3476    2.3771 C.ar    1  UNL1        0.3323
     17 N          24.4642   74.6772    3.2483 N.ar    1  UNL1       -0.2743
     18 C          24.3263   74.3940    4.5593 C.ar    1  UNL1        0.2626
     19 C          23.1489   73.7506    5.0095 C.ar    1  UNL1        0.0795
     20 C          22.1876   73.4360    4.1149 C.ar    1  UNL1        0.0869
     21 O          23.6315   74.6097    1.1979 O.2     1  UNL1       -0.2464
     22 O          25.2064   74.6872    5.3472 O.2     1  UNL1       -0.2670
     23 H          25.2676   75.1184    2.9318 H       1  UNL1        0.1734
     24 O          21.4297   71.5809   -4.2021 O.3     1  UNL1       -0.2703
     25 P          21.2997   72.7612   -5.2881 P.3     1  UNL1        0.2208
     26 O          22.4683   72.7280   -6.1948 O.2     1  UNL1       -0.5170
     27 O          21.2473   74.1825   -4.5334 O.3     1  UNL1       -0.4371
     28 O          19.9512   72.5593   -6.1432 O.3     1  UNL1       -0.2865
     29 C          18.8579   72.7278   -5.2391 C.3     1  UNL1        0.2611
     30 C          17.9350   71.5113   -5.3303 C.3     1  UNL1        0.1582
     31 C          17.4295   71.3726   -6.7707 C.3     1  UNL1        0.1625
     32 C          16.8000   72.7022   -7.1995 C.3     1  UNL1        0.1686
     33 C          17.8099   73.8287   -6.9700 C.3     1  UNL1        0.1760
     34 O          16.4519   70.3327   -6.8371 O.3     1  UNL1       -0.3801
     35 O          16.4547   72.6429   -8.5847 O.3     1  UNL1       -0.3794
     36 O          18.1362   73.9085   -5.5831 O.3     1  UNL1       -0.3263
     37 H          16.1622   70.2799   -7.7583 H       1  UNL1        0.2105
     38 H          16.0634   73.4982   -8.8123 H       1  UNL1        0.2105
     39 C          18.3545   69.6442   -3.8229 C.2     1  UNL1        0.2231
     40 C          19.1167   68.4034   -3.4334 C.3     1  UNL1        0.0946
     41 N          18.6748   70.3056   -4.9517 N.am    1  UNL1       -0.2994
     42 O          17.4531   70.0478   -3.1195 O.2     1  UNL1       -0.2751
     43 H          19.3963   69.9829   -5.5147 H       1  UNL1        0.1496
     44 C          17.2025   75.1571   -7.4255 C.3     1  UNL1        0.1693
     45 O          15.7833   75.1126   -7.2644 O.3     1  UNL1       -0.3794
     46 H          15.4410   75.9662   -7.5623 H       1  UNL1        0.2105
@<TRIPOS>BOND
     1    29    30    1
     2    29    28    1
     3    29    36    1
     4    30    31    1
     5    30    41    1
     6    31    32    1
     7    31    34    1
     8    32    33    1
     9    32    35    1
    10    33    44    1
    11    33    36    1
    12    44    45    1
    13    39    40    1
    14    39    41   am
    15    39    42    2
    16    41    43    1
    17    28    25    1
    18    34    37    1
    19    35    38    1
    20    45    46    1
    21    15    16   ar
    22    15    20   ar
    23    15     6    1
    24    16    17   ar
    25    16    21    2
    26    17    18   ar
    27    17    23    1
    28    18    19   ar
    29    18    22    2
    30    19    20   ar
    31     6     7    1
    32     6    11    1
    33     7     8    1
    34     7     9    1
    35     8    13    1
    36     9    10    1
    37     9    12    1
    38    10    11    1
    39    10     5    1
    40    12    14    1
    41     5     4    1
    42     4     1    1
    43     1     2    2
    44     1     3    1
    45     1    24    1
    46    24    25    1
    47    25    26    2
    48    25    27    1
@<TRIPOS>MOLECULE
UD1
 46 48 0 0 0
SMALL
GASTEIGER

@<TRIPOS>ATOM
      1 P          22.5006   70.5260   -0.4405 P.3     1  UNL1        0.2189
      2 O          21.1389   69.9949   -0.2112 O.2     1  UNL1       -0.5170
      3 O          23.5820   69.5357    0.2245 O.3     1  UNL1       -0.4371
      4 O          22.6269   71.9848    0.2295 O.3     1  UNL1       -0.3112
      5 C          22.4459   71.8114    1.6357 C.3     1  UNL1        0.1811
      6 C          20.3364   73.6526    3.8912 C.3     1  UNL1        0.2383
      7 C          20.9389   74.7307    2.9559 C.3     1  UNL1        0.1895
      8 O          20.0337   75.8217    2.7837 O.3     1  UNL1       -0.3779
      9 C          21.1197   73.9471    1.6298 C.3     1  UNL1        0.1713
     10 C          21.1344   72.4696    2.0671 C.3     1  UNL1        0.1764
     11 O          21.0230   72.4446    3.5003 O.3     1  UNL1       -0.3308
     12 O          20.0272   74.2028    0.7446 O.3     1  UNL1       -0.3794
     13 H          20.4669   76.4548    2.1946 H       1  UNL1        0.2106
     14 H          20.0362   75.1507    0.5563 H       1  UNL1        0.2105
     15 N          20.6088   73.9704    5.2934 N.ar    1  UNL1       -0.2551
     16 C          21.8650   73.8840    5.7643 C.ar    1  UNL1        0.3323
     17 N          22.1453   74.1742    7.0486 N.ar    1  UNL1       -0.2743
     18 C          21.1616   74.5497    7.8907 C.ar    1  UNL1        0.2626
     19 C          19.8336   74.6390    7.4097 C.ar    1  UNL1        0.0795
     20 C          19.5813   74.3474    6.1156 C.ar    1  UNL1        0.0869
     21 O          22.7631   73.5468    5.0171 O.2     1  UNL1       -0.2464
     22 O          21.4131   74.8077    9.0533 O.2     1  UNL1       -0.2670
     23 H          23.0579   74.1111    7.3701 H       1  UNL1        0.1734
     24 O          22.7742   70.6367   -2.0222 O.3     1  UNL1       -0.2703
     25 P          22.0838   72.0027   -2.5190 P.3     1  UNL1        0.2208
     26 O          23.0507   73.1160   -2.3989 O.2     1  UNL1       -0.5170
     27 O          20.7925   72.3139   -1.6091 O.3     1  UNL1       -0.4371
     28 O          21.6310   71.8486   -4.0558 O.3     1  UNL1       -0.2865
     29 C          20.6517   72.8591   -4.3026 C.3     1  UNL1        0.2611
     30 C          19.3748   72.2057   -4.8342 C.3     1  UNL1        0.1582
     31 C          19.7013   71.4424   -6.1228 C.3     1  UNL1        0.1625
     32 C          20.3981   72.3992   -7.0960 C.3     1  UNL1        0.1686
     33 C          21.5998   73.0358   -6.3946 C.3     1  UNL1        0.1760
     34 O          18.4935   70.9535   -6.7089 O.3     1  UNL1       -0.3801
     35 O          20.8422   71.6735   -8.2440 O.3     1  UNL1       -0.3794
     36 O          21.1568   73.7841   -5.2631 O.3     1  UNL1       -0.3263
     37 H          18.7451   70.4810   -7.5143 H       1  UNL1        0.2105
     38 H          21.2746   72.3121   -8.8285 H       1  UNL1        0.2105
     39 C          19.1610   69.9676   -3.8965 C.2     1  UNL1        0.2231
     40 C          18.6171   69.0107   -2.8665 C.3     1  UNL1        0.0946
     41 N          18.8471   71.2759   -3.8336 N.am    1  UNL1       -0.2994
     42 O          19.8810   69.5595   -4.7827 O.2     1  UNL1       -0.2751
     43 H          18.2707   71.6027   -3.1247 H       1  UNL1        0.1496
     44 C          22.3219   73.9688   -7.3688 C.3     1  UNL1        0.1693
     45 O          23.1461   73.1977   -8.2452 O.3     1  UNL1       -0.3794
     46 H          23.5821   73.8221   -8.8408 H       1  UNL1        0.2105
@<TRIPOS>BOND
     1    29    30    1
     2    29    28    1
     3    29    36    1
     4    30    31    1
     5    30    41    1
     6    31    32    1
     7    31    34    1
     8    32    33    1
     9    32    35    1
    10    33    44    1
    11    33    36    1
    12    44    45    1
    13    39    40    1
    14    39    41   am
    15    39    42    2
    16    41    43    1
    17    28    25    1
    18    34    37    1
    19    35    38    1
    20    45    46    1
    21    15    16   ar
    22    15    20   ar
    23    15     6    1
    24    16    17   ar
    25    16    21    2
    26    17    18   ar
    27    17    23    1
    28    18    19   ar
    29    18    22    2
    30    19    20   ar
    31     6     7    1
    32     6    11    1
    33     7     8    1
    34     7     9    1
    35     8    13    1
    36     9    10    1
    37     9    12    1
    38    10    11    1
    39    10     5    1
    40    12    14    1
    41     5     4    1
    42     4     1    1
    43     1     2    2
    44     1     3    1
    45     1    24    1
    46    24    25    1
    47    25    26    2
    48    25    27    1
@<TRIPOS>MOLECULE
UD1
 46 48 0 0 0
SMALL
GASTEIGER

@<TRIPOS>ATOM
      1 P          22.1245   72.0995   -2.9424 P.3     1  UNL1        0.2189
      2 O          20.7056   72.4599   -2.7289 O.2     1  UNL1       -0.5170
      3 O          22.4071   70.6411   -2.3213 O.3     1  UNL1       -0.4371
      4 O          23.0681   73.1832   -2.2157 O.3     1  UNL1       -0.3112
      5 C          22.3241   73.7079   -1.1151 C.3     1  UNL1        0.1811
      6 C          22.7228   73.3245    2.4375 C.3     1  UNL1        0.2383
      7 C          21.2827   72.8295    2.1529 C.3     1  UNL1        0.1895
      8 O          20.8989   71.8132    3.0799 O.3     1  UNL1       -0.3779
      9 C          21.4146   72.2505    0.7202 C.3     1  UNL1        0.1713
     10 C          22.6756   72.9325    0.1554 C.3     1  UNL1        0.1764
     11 O          23.1619   73.8371    1.1616 O.3     1  UNL1       -0.3308
     12 O          21.5836   70.8320    0.7674 O.3     1  UNL1       -0.3794
     13 H          19.9972   71.5499    2.8495 H       1  UNL1        0.2106
     14 H          20.7901   70.4699    1.1837 H       1  UNL1        0.2105
     15 N          22.7177   74.3851    3.4458 N.ar    1  UNL1       -0.2551
     16 C          23.7365   74.4805    4.3177 C.ar    1  UNL1        0.3323
     17 N          23.7601   75.4483    5.2531 N.ar    1  UNL1       -0.2743
     18 C          22.7501   76.3377    5.3362 C.ar    1  UNL1        0.2626
     19 C          21.6684   76.2452    4.4283 C.ar    1  UNL1        0.0795
     20 C          21.6728   75.2679    3.4966 C.ar    1  UNL1        0.0869
     21 O          24.6548   73.6857    4.2555 O.2     1  UNL1       -0.2464
     22 O          22.7680   77.2102    6.1846 O.2     1  UNL1       -0.2670
     23 H          24.5052   75.5051    5.8709 H       1  UNL1        0.1734
     24 O          22.4426   72.0830   -4.5196 O.3     1  UNL1       -0.2703
     25 P          21.2756   72.9264   -5.2380 P.3     1  UNL1        0.2208
     26 O          21.5775   73.0562   -6.6805 O.2     1  UNL1       -0.5170
     27 O          21.1853   74.3910   -4.5755 O.3     1  UNL1       -0.4371
     28 O          19.8693   72.1665   -5.0504 O.3     1  UNL1       -0.2865
     29 C          19.9875   70.9062   -5.7129 C.3     1  UNL1        0.2611
     30 C          18.8099   70.7276   -6.6727 C.3     1  UNL1        0.1582
     31 C          17.5007   70.8009   -5.8788 C.3     1  UNL1        0.1625
     32 C          17.5660   69.7875   -4.7313 C.3     1  UNL1        0.1686
     33 C          18.8361   70.0390   -3.9160 C.3     1  UNL1        0.1760
     34 O          16.4022   70.4874   -6.7370 O.3     1  UNL1       -0.3801
     35 O          16.4196   69.9411   -3.8923 O.3     1  UNL1       -0.3794
     36 O          19.9842   69.8596   -4.7444 O.3     1  UNL1       -0.3263
     37 H          15.6012   70.5457   -6.1981 H       1  UNL1        0.2105
     38 H          16.5013   69.2862   -3.1845 H       1  UNL1        0.2105
     39 C          18.9818   71.4824   -8.9825 C.2     1  UNL1        0.2231
     40 C          19.0062   72.5769  -10.0186 C.3     1  UNL1        0.0946
     41 N          18.8331   71.7905   -7.6797 N.am    1  UNL1       -0.2994
     42 O          19.0967   70.3239   -9.3215 O.2     1  UNL1       -0.2751
     43 H          18.7414   72.7175   -7.4081 H       1  UNL1        0.1496
     44 C          18.8944   69.0527   -2.7477 C.3     1  UNL1        0.1693
     45 O          19.7666   69.5621   -1.7368 O.3     1  UNL1       -0.3794
     46 H          19.7751   68.9121   -1.0211 H       1  UNL1        0.2105
@<TRIPOS>BOND
     1    29    30    1
     2    29    28    1
     3    29    36    1
     4    30    31    1
     5    30    41    1
     6    31    32    1
     7    31    34    1
     8    32    33    1
     9    32    35    1
    10    33    44    1
    11    33    36    1
    12    44    45    1
    13    39    40    1
    14    39    41   am
    15    39    42    2
    16    41    43    1
    17    28    25    1
    18    34    37    1
    19    35    38    1
    20    45    46    1
    21    15    16   ar
    22    15    20   ar
    23    15     6    1
    24    16    17   ar
    25    16    21    2
    26    17    18   ar
    27    17    23    1
    28    18    19   ar
    29    18    22    2
    30    19    20   ar
    31     6     7    1
    32     6    11    1
    33     7     8    1
    34     7     9    1
    35     8    13    1
    36     9    10    1
    37     9    12    1
    38    10    11    1
    39    10     5    1
    40    12    14    1
    41     5     4    1
    42     4     1    1
    43     1     2    2
    44     1     3    1
    45     1    24    1
    46    24    25    1
    47    25    26    2
    48    25    27    1
@<TRIPOS>MOLECULE
UD1
 46 48 0 0 0
SMALL
GASTEIGER

@<TRIPOS>ATOM
      1 P          21.3217   71.0353   -2.4115 P.3     1  UNL1        0.2189
      2 O          22.7131   71.3746   -2.7823 O.2     1  UNL1       -0.5170
      3 O          21.0706   69.4630   -2.6507 O.3     1  UNL1       -0.4371
      4 O          20.3016   71.8853   -3.3224 O.3     1  UNL1       -0.3112
      5 C          19.9033   71.0365   -4.4000 C.3     1  UNL1        0.1811
      6 C          16.9378   71.8503   -6.2630 C.3     1  UNL1        0.2383
      7 C          17.1926   70.3539   -6.5731 C.3     1  UNL1        0.1895
      8 O          15.9649   69.6656   -6.8141 O.3     1  UNL1       -0.3779
      9 C          17.8568   69.8582   -5.2622 C.3     1  UNL1        0.1713
     10 C          18.3914   71.1447   -4.6037 C.3     1  UNL1        0.1764
     11 O          18.0944   72.2367   -5.4906 O.3     1  UNL1       -0.3308
     12 O          16.8916   69.2221   -4.4217 O.3     1  UNL1       -0.3794
     13 H          16.1922   68.7441   -7.0004 H       1  UNL1        0.2106
     14 H          16.5522   68.4616   -4.9122 H       1  UNL1        0.2105
     15 N          16.8580   72.6305   -7.4984 N.ar    1  UNL1       -0.2551
     16 C          17.8968   72.6352   -8.3518 C.ar    1  UNL1        0.3323
     17 N          17.8495   73.3406   -9.4974 N.ar    1  UNL1       -0.2743
     18 C          16.7551   74.0658   -9.8042 C.ar    1  UNL1        0.2626
     19 C          15.6566   74.0745   -8.9119 C.ar    1  UNL1        0.0795
     20 C          15.7285   73.3537   -7.7723 C.ar    1  UNL1        0.0869
     21 O          18.8909   71.9860   -8.0891 O.2     1  UNL1       -0.2464
     22 O          16.7131   74.7077  -10.8374 O.2     1  UNL1       -0.2670
     23 H          18.6062   73.3288  -10.1036 H       1  UNL1        0.1734
     24 O          21.0782   71.3888   -0.8608 O.3     1  UNL1       -0.2703
     25 P          22.2425   70.6537   -0.0280 P.3     1  UNL1        0.2208
     26 O          23.4105   70.4280   -0.9075 O.2     1  UNL1       -0.5170
     27 O          21.7015   69.2391    0.5180 O.3     1  UNL1       -0.4371
     28 O          22.6783   71.5766    1.2165 O.3     1  UNL1       -0.2865
     29 C          21.8104   72.7114    1.2151 C.3     1  UNL1        0.2611
     30 C          22.6044   73.9539    0.8081 C.3     1  UNL1        0.1582
     31 C          23.7588   74.1569    1.7960 C.3     1  UNL1        0.1625
     32 C          23.1880   74.1845    3.2178 C.3     1  UNL1        0.1686
     33 C          22.3523   72.9228    3.4440 C.3     1  UNL1        0.1760
     34 O          24.4165   75.3941    1.5163 O.3     1  UNL1       -0.3801
     35 O          24.2594   74.2254    4.1622 O.3     1  UNL1       -0.3794
     36 O          21.2651   72.8926    2.5201 O.3     1  UNL1       -0.3263
     37 H          25.1337   75.4807    2.1593 H       1  UNL1        0.2105
     38 H          23.8565   74.2410    5.0419 H       1  UNL1        0.2105
     39 C          23.1449   74.8018   -1.4107 C.2     1  UNL1        0.2231
     40 C          23.6965   74.6140   -2.8009 C.3     1  UNL1        0.0946
     41 N          23.1406   73.7722   -0.5423 N.am    1  UNL1       -0.2994
     42 O          22.7041   75.8799   -1.0739 O.2     1  UNL1       -0.2751
     43 H          23.4932   72.9092   -0.8117 H       1  UNL1        0.1496
     44 C          21.8042   72.9250    4.8725 C.3     1  UNL1        0.1693
     45 O          20.4234   73.2925    4.8528 O.3     1  UNL1       -0.3794
     46 H          20.1178   73.2820    5.7699 H       1  UNL1        0.2105
@<TRIPOS>BOND
     1    29    30    1
     2    29    28    1
     3    29    36    1
     4    30    31    1
     5    30    41    1
     6    31    32    1
     7    31    34    1
     8    32    33    1
     9    32    35    1
    10    33    44    1
    11    33    36    1
    12    44    45    1
    13    39    40    1
    14    39    41   am
    15    39    42    2
    16    41    43    1
    17    28    25    1
    18    34    37    1
    19    35    38    1
    20    45    46    1
    21    15    16   ar
    22    15    20   ar
    23    15     6    1
    24    16    17   ar
    25    16    21    2
    26    17    18   ar
    27    17    23    1
    28    18    19   ar
    29    18    22    2
    30    19    20   ar
    31     6     7    1
    32     6    11    1
    33     7     8    1
    34     7     9    1
    35     8    13    1
    36     9    10    1
    37     9    12    1
    38    10    11    1
    39    10     5    1
    40    12    14    1
    41     5     4    1
    42     4     1    1
    43     1     2    2
    44     1     3    1
    45     1    24    1
    46    24    25    1
    47    25    26    2
    48    25    27    1
@<TRIPOS>MOLECULE
UD1
 46 48 0 0 0
SMALL
GASTEIGER

@<TRIPOS>ATOM
      1 P          18.1468   74.5534   -1.9685 P.3     1  UNL1        0.2189
      2 O          17.4076   74.9079   -0.7369 O.2     1  UNL1       -0.5170
      3 O          17.3443   75.1009   -3.2525 O.3     1  UNL1       -0.4371
      4 O          18.2873   72.9524   -2.0673 O.3     1  UNL1       -0.3112
      5 C          17.0011   72.4454   -2.4264 C.3     1  UNL1        0.1811
      6 C          17.9286   70.2888   -5.1496 C.3     1  UNL1        0.2383
      7 C          19.1847   70.3323   -4.2438 C.3     1  UNL1        0.1895
      8 O          19.9133   69.1066   -4.3211 O.3     1  UNL1       -0.3779
      9 C          18.5638   70.5190   -2.8349 C.3     1  UNL1        0.1713
     10 C          17.1606   71.0900   -3.1169 C.3     1  UNL1        0.1764
     11 O          17.0398   71.2494   -4.5407 O.3     1  UNL1       -0.3308
     12 O          18.4733   69.2637   -2.1577 O.3     1  UNL1       -0.3794
     13 H          20.6793   69.1988   -3.7377 H       1  UNL1        0.2106
     14 H          19.3759   68.9309   -2.0646 H       1  UNL1        0.2105
     15 N          18.2608   70.6879   -6.5178 N.ar    1  UNL1       -0.2551
     16 C          17.3361   70.5773   -7.4873 C.ar    1  UNL1        0.3323
     17 N          17.6127   70.9405   -8.7537 N.ar    1  UNL1       -0.2743
     18 C          18.8334   71.4156   -9.0731 C.ar    1  UNL1        0.2626
     19 C          19.8182   71.5317   -8.0634 C.ar    1  UNL1        0.0795
     20 C          19.5123   71.1652   -6.8003 C.ar    1  UNL1        0.0869
     21 O          16.2305   70.1505   -7.2149 O.2     1  UNL1       -0.2464
     22 O          19.0861   71.7398  -10.2187 O.2     1  UNL1       -0.2670
     23 H          16.9321   70.8584   -9.4395 H       1  UNL1        0.1734
     24 O          19.6112   75.2188   -1.9258 O.3     1  UNL1       -0.2703
     25 P          20.2520   74.8410   -0.4990 P.3     1  UNL1        0.2208
     26 O          19.2552   75.0793    0.5680 O.2     1  UNL1       -0.5170
     27 O          21.5500   75.7559   -0.2337 O.3     1  UNL1       -0.4371
     28 O          20.6810   73.2897   -0.4957 O.3     1  UNL1       -0.2865
     29 C          22.0973   73.2509   -0.6795 C.3     1  UNL1        0.2611
     30 C          22.4275   72.3496   -1.8705 C.3     1  UNL1        0.1582
     31 C          21.8779   70.9439   -1.6029 C.3     1  UNL1        0.1625
     32 C          22.4105   70.4586   -0.2505 C.3     1  UNL1        0.1686
     33 C          22.0788   71.5014    0.8190 C.3     1  UNL1        0.1760
     34 O          22.3080   70.0567   -2.6370 O.3     1  UNL1       -0.3801
     35 O          21.7954   69.2138    0.0866 O.3     1  UNL1       -0.3794
     36 O          22.7143   72.7386    0.4996 O.3     1  UNL1       -0.3263
     37 H          21.9403   69.1866   -2.4294 H       1  UNL1        0.2105
     38 H          22.1576   68.9457    0.9430 H       1  UNL1        0.2105
     39 C          22.5126   72.9407   -4.2322 C.2     1  UNL1        0.2231
     40 C          21.8791   73.5021   -5.4795 C.3     1  UNL1        0.0946
     41 N          21.8123   72.8943   -3.0826 N.am    1  UNL1       -0.2994
     42 O          23.6535   72.5312   -4.2633 O.2     1  UNL1       -0.2751
     43 H          20.8994   73.2222   -3.0574 H       1  UNL1        0.1496
     44 C          22.5780   71.0111    2.1797 C.3     1  UNL1        0.1693
     45 O          23.5455   69.9770    1.9882 O.3     1  UNL1       -0.3794
     46 H          23.8333   69.6968    2.8676 H       1  UNL1        0.2105
@<TRIPOS>BOND
     1    29    30    1
     2    29    28    1
     3    29    36    1
     4    30    31    1
     5    30    41    1
     6    31    32    1
     7    31    34    1
     8    32    33    1
     9    32    35    1
    10    33    44    1
    11    33    36    1
    12    44    45    1
    13    39    40    1
    14    39    41   am
    15    39    42    2
    16    41    43    1
    17    28    25    1
    18    34    37    1
    19    35    38    1
    20    45    46    1
    21    15    16   ar
    22    15    20   ar
    23    15     6    1
    24    16    17   ar
    25    16    21    2
    26    17    18   ar
    27    17    23    1
    28    18    19   ar
    29    18    22    2
    30    19    20   ar
    31     6     7    1
    32     6    11    1
    33     7     8    1
    34     7     9    1
    35     8    13    1
    36     9    10    1
    37     9    12    1
    38    10    11    1
    39    10     5    1
    40    12    14    1
    41     5     4    1
    42     4     1    1
    43     1     2    2
    44     1     3    1
    45     1    24    1
    46    24    25    1
    47    25    26    2
    48    25    27    1
@<TRIPOS>MOLECULE
UD1
 46 48 0 0 0
SMALL
GASTEIGER

@<TRIPOS>ATOM
      1 P          23.0156   73.8074   -3.3303 P.3     1  UNL1        0.2189
      2 O          21.8259   74.3006   -4.0583 O.2     1  UNL1       -0.5170
      3 O          23.9396   72.9488   -4.3312 O.3     1  UNL1       -0.4371
      4 O          22.5456   72.8762   -2.1036 O.3     1  UNL1       -0.3112
      5 C          21.2023   73.2486   -1.7923 C.3     1  UNL1        0.1811
      6 C          19.2197   70.7034   -3.3793 C.3     1  UNL1        0.2383
      7 C          20.6327   70.0788   -3.2632 C.3     1  UNL1        0.1895
      8 O          20.5540   68.6607   -3.1148 O.3     1  UNL1       -0.3779
      9 C          21.1764   70.7411   -1.9706 C.3     1  UNL1        0.1713
     10 C          20.3112   72.0056   -1.8055 C.3     1  UNL1        0.1764
     11 O          19.4122   72.0603   -2.9262 O.3     1  UNL1       -0.3308
     12 O          21.0126   69.8656   -0.8528 O.3     1  UNL1       -0.3794
     13 H          21.4624   68.3351   -3.0488 H       1  UNL1        0.2106
     14 H          21.5286   69.0708   -1.0428 H       1  UNL1        0.2105
     15 N          18.7554   70.6836   -4.7669 N.ar    1  UNL1       -0.2551
     16 C          17.5111   70.2587   -5.0472 C.ar    1  UNL1        0.3323
     17 N          17.0561   70.2334   -6.3139 N.ar    1  UNL1       -0.2743
     18 C          17.8506   70.6281   -7.3292 C.ar    1  UNL1        0.2626
     19 C          19.1649   71.0720   -7.0490 C.ar    1  UNL1        0.0795
     20 C          19.5939   71.0922   -5.7688 C.ar    1  UNL1        0.0869
     21 O          16.7826   69.8997   -4.1422 O.2     1  UNL1       -0.2464
     22 O          17.4420   70.6011   -8.4754 O.2     1  UNL1       -0.2670
     23 H          16.1542   69.9285   -6.4973 H       1  UNL1        0.1734
     24 O          23.8546   75.0579   -2.7636 O.3     1  UNL1       -0.2703
     25 P          24.5632   75.7543   -4.0294 P.3     1  UNL1        0.2208
     26 O          24.5838   77.2212   -3.8378 O.2     1  UNL1       -0.5170
     27 O          23.7410   75.4001   -5.3676 O.3     1  UNL1       -0.4371
     28 O          26.0715   75.2101   -4.1683 O.3     1  UNL1       -0.2865
     29 C          26.8952   76.3410   -4.4578 C.3     1  UNL1        0.2611
     30 C          27.6001   76.1226   -5.7978 C.3     1  UNL1        0.1582
     31 C          28.4434   74.8451   -5.7182 C.3     1  UNL1        0.1625
     32 C          29.3707   74.9450   -4.5023 C.3     1  UNL1        0.1686
     33 C          28.5317   75.2492   -3.2594 C.3     1  UNL1        0.1760
     34 O          29.2221   74.7104   -6.9085 O.3     1  UNL1       -0.3801
     35 O          30.0600   73.7062   -4.3239 O.3     1  UNL1       -0.3794
     36 O          27.8634   76.4994   -3.4230 O.3     1  UNL1       -0.3263
     37 H          29.7353   73.8960   -6.8160 H       1  UNL1        0.2105
     38 H          30.6306   73.8125   -3.5495 H       1  UNL1        0.2105
     39 C          26.8287   76.5254   -8.0731 C.2     1  UNL1        0.2231
     40 C          25.8002   76.3847   -9.1661 C.3     1  UNL1        0.0946
     41 N          26.6015   75.9857   -6.8601 N.am    1  UNL1       -0.2994
     42 O          27.8608   77.1252   -8.2854 O.2     1  UNL1       -0.2751
     43 H          25.7754   75.5059   -6.6898 H       1  UNL1        0.1496
     44 C          29.4449   75.3189   -2.0337 C.3     1  UNL1        0.1693
     45 O          29.5956   74.0116   -1.4765 O.3     1  UNL1       -0.3794
     46 H          30.1762   74.0999   -0.7086 H       1  UNL1        0.2105
@<TRIPOS>BOND
     1    29    30    1
     2    29    28    1
     3    29    36    1
     4    30    31    1
     5    30    41    1
     6    31    32    1
     7    31    34    1
     8    32    33    1
     9    32    35    1
    10    33    44    1
    11    33    36    1
    12    44    45    1
    13    39    40    1
    14    39    41   am
    15    39    42    2
    16    41    43    1
    17    28    25    1
    18    34    37    1
    19    35    38    1
    20    45    46    1
    21    15    16   ar
    22    15    20   ar
    23    15     6    1
    24    16    17   ar
    25    16    21    2
    26    17    18   ar
    27    17    23    1
    28    18    19   ar
    29    18    22    2
    30    19    20   ar
    31     6     7    1
    32     6    11    1
    33     7     8    1
    34     7     9    1
    35     8    13    1
    36     9    10    1
    37     9    12    1
    38    10    11    1
    39    10     5    1
    40    12    14    1
    41     5     4    1
    42     4     1    1
    43     1     2    2
    44     1     3    1
    45     1    24    1
    46    24    25    1
    47    25    26    2
    48    25    27    1
@<TRIPOS>MOLECULE
UD1
 46 48 0 0 0
SMALL
GASTEIGER

@<TRIPOS>ATOM
      1 P          18.5482   71.3379   -3.1980 P.3     1  UNL1        0.2189
      2 O          17.5020   70.5602   -2.4983 O.2     1  UNL1       -0.5170
      3 O          19.3778   70.3637   -4.1754 O.3     1  UNL1       -0.4371
      4 O          19.5474   71.9877   -2.1153 O.3     1  UNL1       -0.3112
      5 C          20.4225   72.8606   -2.8313 C.3     1  UNL1        0.1811
      6 C          22.8587   72.4749   -0.2152 C.3     1  UNL1        0.2383
      7 C          22.5584   71.0286   -0.6823 C.3     1  UNL1        0.1895
      8 O          23.7047   70.1919   -0.5238 O.3     1  UNL1       -0.3779
      9 C          22.2260   71.2335   -2.1832 C.3     1  UNL1        0.1713
     10 C          21.8433   72.7228   -2.2819 C.3     1  UNL1        0.1764
     11 O          21.9098   73.2724   -0.9550 O.3     1  UNL1       -0.3308
     12 O          23.3695   70.9494   -2.9922 O.3     1  UNL1       -0.3794
     13 H          23.4524   69.3100   -0.8305 H       1  UNL1        0.2106
     14 H          23.5948   70.0217   -2.8413 H       1  UNL1        0.2105
     15 N          22.6368   72.6124    1.2247 N.ar    1  UNL1       -0.2551
     16 C          21.8474   71.7319    1.8642 C.ar    1  UNL1        0.3323
     17 N          21.6288   71.8317    3.1888 N.ar    1  UNL1       -0.2743
     18 C          22.1949   72.8291    3.8977 C.ar    1  UNL1        0.2626
     19 C          23.0233   73.7665    3.2359 C.ar    1  UNL1        0.0795
     20 C          23.2300   73.6398    1.9075 C.ar    1  UNL1        0.0869
     21 O          21.3297   70.8268    1.2387 O.2     1  UNL1       -0.2464
     22 O          21.9941   72.9231    5.0944 O.2     1  UNL1       -0.2670
     23 H          21.0604   71.1850    3.6347 H       1  UNL1        0.1734
     24 O          17.8598   72.5074   -4.0624 O.3     1  UNL1       -0.2703
     25 P          16.7483   71.8063   -4.9911 P.3     1  UNL1        0.2208
     26 O          15.4184   72.3779   -4.6854 O.2     1  UNL1       -0.5170
     27 O          16.7296   70.2222   -4.7039 O.3     1  UNL1       -0.4371
     28 O          17.1004   72.0653   -6.5401 O.3     1  UNL1       -0.2865
     29 C          18.0608   73.1224   -6.5757 C.3     1  UNL1        0.2611
     30 C          17.6341   74.1576   -7.6179 C.3     1  UNL1        0.1582
     31 C          17.5283   73.4763   -8.9869 C.3     1  UNL1        0.1625
     32 C          18.8510   72.7610   -9.2820 C.3     1  UNL1        0.1686
     33 C          19.1844   71.8288   -8.1153 C.3     1  UNL1        0.1760
     34 O          17.2769   74.4593   -9.9929 O.3     1  UNL1       -0.3801
     35 O          18.7243   71.9986  -10.4837 O.3     1  UNL1       -0.3794
     36 O          19.3387   72.5904   -6.9184 O.3     1  UNL1       -0.3263
     37 H          17.2176   73.9881  -10.8353 H       1  UNL1        0.2105
     38 H          19.5769   71.5653  -10.6313 H       1  UNL1        0.2105
     39 C          15.2026   74.1976   -7.7618 C.2     1  UNL1        0.2231
     40 C          13.8637   74.7756   -7.3803 C.3     1  UNL1        0.0946
     41 N          16.3332   74.7184   -7.2472 N.am    1  UNL1       -0.2994
     42 O          15.2623   73.2637   -8.5328 O.2     1  UNL1       -0.2751
     43 H          16.2857   75.4660   -6.6304 H       1  UNL1        0.1496
     44 C          20.4876   71.0851   -8.4148 C.3     1  UNL1        0.1693
     45 O          20.1880   69.7762   -8.9038 O.3     1  UNL1       -0.3794
     46 H          21.0341   69.3426   -9.0794 H       1  UNL1        0.2105
@<TRIPOS>BOND
     1    29    30    1
     2    29    28    1
     3    29    36    1
     4    30    31    1
     5    30    41    1
     6    31    32    1
     7    31    34    1
     8    32    33    1
     9    32    35    1
    10    33    44    1
    11    33    36    1
    12    44    45    1
    13    39    40    1
    14    39    41   am
    15    39    42    2
    16    41    43    1
    17    28    25    1
    18    34    37    1
    19    35    38    1
    20    45    46    1
    21    15    16   ar
    22    15    20   ar
    23    15     6    1
    24    16    17   ar
    25    16    21    2
    26    17    18   ar
    27    17    23    1
    28    18    19   ar
    29    18    22    2
    30    19    20   ar
    31     6     7    1
    32     6    11    1
    33     7     8    1
    34     7     9    1
    35     8    13    1
    36     9    10    1
    37     9    12    1
    38    10    11    1
    39    10     5    1
    40    12    14    1
    41     5     4    1
    42     4     1    1
    43     1     2    2
    44     1     3    1
    45     1    24    1
    46    24    25    1
    47    25    26    2
    48    25    27    1
@<TRIPOS>MOLECULE
UD1
 46 48 0 0 0
SMALL
GASTEIGER

@<TRIPOS>ATOM
      1 P          22.7326   71.9089   -3.2104 P.3     1  UNL1        0.2189
      2 O          23.4574   70.6191   -3.2096 O.2     1  UNL1       -0.5170
      3 O          23.7793   73.1126   -3.4300 O.3     1  UNL1       -0.4371
      4 O          21.9817   72.1027   -1.7993 O.3     1  UNL1       -0.3112
      5 C          22.7177   73.0864   -1.0705 C.3     1  UNL1        0.1811
      6 C          22.5494   73.4648    2.5010 C.3     1  UNL1        0.2383
      7 C          21.2097   72.7870    2.1189 C.3     1  UNL1        0.1895
      8 O          20.7431   71.9459    3.1744 O.3     1  UNL1       -0.3779
      9 C          21.6117   71.9473    0.8786 C.3     1  UNL1        0.1713
     10 C          22.9032   72.6194    0.3740 C.3     1  UNL1        0.1764
     11 O          23.1596   73.7501    1.2243 O.3     1  UNL1       -0.3308
     12 O          21.8593   70.5901    1.2521 O.3     1  UNL1       -0.3794
     13 H          19.9100   71.5565    2.8748 H       1  UNL1        0.2106
     14 H          21.0324   70.2448    1.6141 H       1  UNL1        0.2105
     15 N          22.3119   74.7009    3.2474 N.ar    1  UNL1       -0.2551
     16 C          22.7600   74.8135    4.5099 C.ar    1  UNL1        0.3323
     17 N          22.5593   75.9402    5.2187 N.ar    1  UNL1       -0.2743
     18 C          21.8929   76.9771    4.6723 C.ar    1  UNL1        0.2626
     19 C          21.4105   76.8698    3.3461 C.ar    1  UNL1        0.0795
     20 C          21.6303   75.7302    2.6559 C.ar    1  UNL1        0.0869
     21 O          23.3629   73.8869    5.0165 O.2     1  UNL1       -0.2464
     22 O          21.7067   77.9945    5.3139 O.2     1  UNL1       -0.2670
     23 H          22.8937   76.0059    6.1265 H       1  UNL1        0.1734
     24 O          21.6491   71.9149   -4.3999 O.3     1  UNL1       -0.2703
     25 P          20.3571   71.1250   -3.8558 P.3     1  UNL1        0.2208
     26 O          19.8105   71.8283   -2.6744 O.2     1  UNL1       -0.5170
     27 O          20.7781   69.6275   -3.4407 O.3     1  UNL1       -0.4371
     28 O          19.2373   71.0655   -5.0104 O.3     1  UNL1       -0.2865
     29 C          19.1894   72.3621   -5.6085 C.3     1  UNL1        0.2611
     30 C          17.7571   72.8952   -5.5444 C.3     1  UNL1        0.1582
     31 C          16.8275   71.9246   -6.2815 C.3     1  UNL1        0.1625
     32 C          17.3762   71.6978   -7.6942 C.3     1  UNL1        0.1686
     33 C          18.8366   71.2520   -7.5959 C.3     1  UNL1        0.1760
     34 O          15.5149   72.4837   -6.3582 O.3     1  UNL1       -0.3801
     35 O          16.6089   70.6853   -8.3481 O.3     1  UNL1       -0.3794
     36 O          19.6111   72.2728   -6.9678 O.3     1  UNL1       -0.3263
     37 H          14.9647   71.8417   -6.8278 H       1  UNL1        0.2105
     38 H          16.9878   70.5740   -9.2316 H       1  UNL1        0.2105
     39 C          16.6216   72.0219   -3.5741 C.2     1  UNL1        0.2231
     40 C          16.1907   72.1393   -2.1344 C.3     1  UNL1        0.0946
     41 N          17.3386   73.0085   -4.1457 N.am    1  UNL1       -0.2994
     42 O          16.3223   71.0394   -4.2184 O.2     1  UNL1       -0.2751
     43 H          17.5781   73.7951   -3.6304 H       1  UNL1        0.1496
     44 C          19.3847   70.9914   -9.0005 C.3     1  UNL1        0.1693
     45 O          18.6185   71.7283   -9.9555 O.3     1  UNL1       -0.3794
     46 H          18.9954   71.5363  -10.8248 H       1  UNL1        0.2105
@<TRIPOS>BOND
     1    29    30    1
     2    29    28    1
     3    29    36    1
     4    30    31    1
     5    30    41    1
     6    31    32    1
     7    31    34    1
     8    32    33    1
     9    32    35    1
    10    33    44    1
    11    33    36    1
    12    44    45    1
    13    39    40    1
    14    39    41   am
    15    39    42    2
    16    41    43    1
    17    28    25    1
    18    34    37    1
    19    35    38    1
    20    45    46    1
    21    15    16   ar
    22    15    20   ar
    23    15     6    1
    24    16    17   ar
    25    16    21    2
    26    17    18   ar
    27    17    23    1
    28    18    19   ar
    29    18    22    2
    30    19    20   ar
    31     6     7    1
    32     6    11    1
    33     7     8    1
    34     7     9    1
    35     8    13    1
    36     9    10    1
    37     9    12    1
    38    10    11    1
    39    10     5    1
    40    12    14    1
    41     5     4    1
    42     4     1    1
    43     1     2    2
    44     1     3    1
    45     1    24    1
    46    24    25    1
    47    25    26    2
    48    25    27    1
@<TRIPOS>MOLECULE
UD1
 46 48 0 0 0
SMALL
GASTEIGER

@<TRIPOS>ATOM
      1 P          17.6541   71.5174   -6.4558 P.3     1  UNL1        0.2189
      2 O          18.5592   71.4961   -7.6258 O.2     1  UNL1       -0.5170
      3 O          16.4910   70.4222   -6.6570 O.3     1  UNL1       -0.4371
      4 O          16.9944   72.9795   -6.3149 O.3     1  UNL1       -0.3112
      5 C          15.8355   72.9930   -7.1498 C.3     1  UNL1        0.1811
      6 C          15.2055   74.9631  -10.0907 C.3     1  UNL1        0.2383
      7 C          15.9316   75.9311   -9.1232 C.3     1  UNL1        0.1895
      8 O          16.7030   76.8920   -9.8450 O.3     1  UNL1       -0.3779
      9 C          16.8510   74.9679   -8.3281 C.3     1  UNL1        0.1713
     10 C          16.1947   73.5860   -8.5131 C.3     1  UNL1        0.1764
     11 O          15.0019   73.7778   -9.2925 O.3     1  UNL1       -0.3308
     12 O          18.1735   74.9774   -8.8699 O.3     1  UNL1       -0.3794
     13 H          17.1269   77.4614   -9.1881 H       1  UNL1        0.2106
     14 H          18.5061   75.8803   -8.7788 H       1  UNL1        0.2105
     15 N          13.9234   75.5227  -10.5202 N.ar    1  UNL1       -0.2551
     16 C          12.8014   75.2091   -9.8494 C.ar    1  UNL1        0.3323
     17 N          11.6089   75.7122  -10.2197 N.ar    1  UNL1       -0.2743
     18 C          11.5199   76.5373  -11.2824 C.ar    1  UNL1        0.2626
     19 C          12.6925   76.8710  -12.0012 C.ar    1  UNL1        0.0795
     20 C          13.8763   76.3564  -11.6049 C.ar    1  UNL1        0.0869
     21 O          12.8654   74.4663   -8.8888 O.2     1  UNL1       -0.2464
     22 O          10.4416   76.9890  -11.6210 O.2     1  UNL1       -0.2670
     23 H          10.8104   75.4791   -9.7215 H       1  UNL1        0.1734
     24 O          18.4900   71.1754   -5.1242 O.3     1  UNL1       -0.2703
     25 P          19.6083   72.3221   -4.9701 P.3     1  UNL1        0.2208
     26 O          18.9790   73.6505   -5.1379 O.2     1  UNL1       -0.5170
     27 O          20.7430   72.1208   -6.0945 O.3     1  UNL1       -0.4371
     28 O          20.2789   72.2267   -3.5100 O.3     1  UNL1       -0.2865
     29 C          21.6236   71.7830   -3.6997 C.3     1  UNL1        0.2611
     30 C          21.8348   70.4722   -2.9399 C.3     1  UNL1        0.1582
     31 C          21.5459   70.7030   -1.4524 C.3     1  UNL1        0.1625
     32 C          22.3940   71.8827   -0.9656 C.3     1  UNL1        0.1686
     33 C          22.1382   73.0882   -1.8726 C.3     1  UNL1        0.1760
     34 O          21.8828   69.5287   -0.7114 O.3     1  UNL1       -0.3801
     35 O          22.0330   72.2086    0.3779 O.3     1  UNL1       -0.3794
     36 O          22.5235   72.7752   -3.2106 O.3     1  UNL1       -0.3263
     37 H          21.6855   69.7176    0.2163 H       1  UNL1        0.2105
     38 H          22.5890   72.9548    0.6438 H       1  UNL1        0.2105
     39 C          19.7480   69.2186   -2.8527 C.2     1  UNL1        0.2231
     40 C          18.8128   68.1664   -3.3918 C.3     1  UNL1        0.0946
     41 N          20.9258   69.4505   -3.4636 N.am    1  UNL1       -0.2994
     42 O          19.4404   69.8561   -1.8683 O.2     1  UNL1       -0.2751
     43 H          21.1723   68.9403   -4.2512 H       1  UNL1        0.1496
     44 C          22.9563   74.2817   -1.3753 C.3     1  UNL1        0.1693
     45 O          23.5261   73.9718   -0.1020 O.3     1  UNL1       -0.3794
     46 H          24.0316   74.7480    0.1747 H       1  UNL1        0.2105
@<TRIPOS>BOND
     1    29    30    1
     2    29    28    1
     3    29    36    1
     4    30    31    1
     5    30    41    1
     6    31    32    1
     7    31    34    1
     8    32    33    1
     9    32    35    1
    10    33    44    1
    11    33    36    1
    12    44    45    1
    13    39    40    1
    14    39    41   am
    15    39    42    2
    16    41    43    1
    17    28    25    1
    18    34    37    1
    19    35    38    1
    20    45    46    1
    21    15    16   ar
    22    15    20   ar
    23    15     6    1
    24    16    17   ar
    25    16    21    2
    26    17    18   ar
    27    17    23    1
    28    18    19   ar
    29    18    22    2
    30    19    20   ar
    31     6     7    1
    32     6    11    1
    33     7     8    1
    34     7     9    1
    35     8    13    1
    36     9    10    1
    37     9    12    1
    38    10    11    1
    39    10     5    1
    40    12    14    1
    41     5     4    1
    42     4     1    1
    43     1     2    2
    44     1     3    1
    45     1    24    1
    46    24    25    1
    47    25    26    2
    48    25    27    1
@<TRIPOS>MOLECULE
UD1
 46 48 0 0 0
SMALL
GASTEIGER

@<TRIPOS>ATOM
      1 P          22.6932   73.5785   -4.5175 P.3     1  UNL1        0.2189
      2 O          23.8738   72.7626   -4.1579 O.2     1  UNL1       -0.5170
      3 O          23.0683   74.5549   -5.7416 O.3     1  UNL1       -0.4371
      4 O          22.2440   74.4603   -3.2472 O.3     1  UNL1       -0.3112
      5 C          21.3710   73.6442   -2.4648 C.3     1  UNL1        0.1811
      6 C          22.1367   72.3612    0.8055 C.3     1  UNL1        0.2383
      7 C          21.2606   71.2627    0.1529 C.3     1  UNL1        0.1895
      8 O          21.6155   69.9686    0.6415 O.3     1  UNL1       -0.3779
      9 C          21.6232   71.4060   -1.3481 C.3     1  UNL1        0.1713
     10 C          22.1924   72.8335   -1.4611 C.3     1  UNL1        0.1764
     11 O          22.1048   73.4353   -0.1583 O.3     1  UNL1       -0.3308
     12 O          22.6064   70.4376   -1.7201 O.3     1  UNL1       -0.3794
     13 H          21.0360   69.3334    0.1987 H       1  UNL1        0.2106
     14 H          22.2121   69.5679   -1.5710 H       1  UNL1        0.2105
     15 N          21.5628   72.7943    2.0801 N.ar    1  UNL1       -0.2551
     16 C          21.9637   72.2118    3.2235 C.ar    1  UNL1        0.3323
     17 N          21.4558   72.5926    4.4106 N.ar    1  UNL1       -0.2743
     18 C          20.5236   73.5650    4.4703 C.ar    1  UNL1        0.2626
     19 C          20.0882   74.1825    3.2737 C.ar    1  UNL1        0.0795
     20 C          20.6182   73.7848    2.0972 C.ar    1  UNL1        0.0869
     21 O          22.8037   71.3334    3.1859 O.2     1  UNL1       -0.2464
     22 O          20.0602   73.9068    5.5426 O.2     1  UNL1       -0.2670
     23 H          21.7600   72.1649    5.2259 H       1  UNL1        0.1734
     24 O          21.4842   72.6104   -4.9531 O.3     1  UNL1       -0.2703
     25 P          21.0786   73.0201   -6.4554 P.3     1  UNL1        0.2208
     26 O          22.1407   72.5850   -7.3889 O.2     1  UNL1       -0.5170
     27 O          20.9051   74.6181   -6.5483 O.3     1  UNL1       -0.4371
     28 O          19.6911   72.3072   -6.8514 O.3     1  UNL1       -0.2865
     29 C          18.7449   72.6497   -5.8372 C.3     1  UNL1        0.2611
     30 C          18.0467   71.3794   -5.3483 C.3     1  UNL1        0.1582
     31 C          17.3486   70.7032   -6.5336 C.3     1  UNL1        0.1625
     32 C          16.4354   71.7283   -7.2143 C.3     1  UNL1        0.1686
     33 C          17.2559   72.9712   -7.5653 C.3     1  UNL1        0.1760
     34 O          16.5704   69.6003   -6.0652 O.3     1  UNL1       -0.3801
     35 O          15.8877   71.1630   -8.4068 O.3     1  UNL1       -0.3794
     36 O          17.7818   73.5542   -6.3736 O.3     1  UNL1       -0.3263
     37 H          16.1503   69.2051   -6.8415 H       1  UNL1        0.2105
     38 H          15.3214   71.8403   -8.8030 H       1  UNL1        0.2105
     39 C          18.7306   69.7342   -3.6870 C.2     1  UNL1        0.2231
     40 C          19.7508   68.7938   -3.0979 C.3     1  UNL1        0.0946
     41 N          19.0373   70.4654   -4.7759 N.am    1  UNL1       -0.2994
     42 O          17.6335   69.8332   -3.1804 O.2     1  UNL1       -0.2751
     43 H          19.9153   70.3865   -5.1814 H       1  UNL1        0.1496
     44 C          16.3601   73.9885   -8.2751 C.3     1  UNL1        0.1693
     45 O          15.6727   73.3487   -9.3522 O.3     1  UNL1       -0.3794
     46 H          15.1212   74.0228   -9.7719 H       1  UNL1        0.2105
@<TRIPOS>BOND
     1    29    30    1
     2    29    28    1
     3    29    36    1
     4    30    31    1
     5    30    41    1
     6    31    32    1
     7    31    34    1
     8    32    33    1
     9    32    35    1
    10    33    44    1
    11    33    36    1
    12    44    45    1
    13    39    40    1
    14    39    41   am
    15    39    42    2
    16    41    43    1
    17    28    25    1
    18    34    37    1
    19    35    38    1
    20    45    46    1
    21    15    16   ar
    22    15    20   ar
    23    15     6    1
    24    16    17   ar
    25    16    21    2
    26    17    18   ar
    27    17    23    1
    28    18    19   ar
    29    18    22    2
    30    19    20   ar
    31     6     7    1
    32     6    11    1
    33     7     8    1
    34     7     9    1
    35     8    13    1
    36     9    10    1
    37     9    12    1
    38    10    11    1
    39    10     5    1
    40    12    14    1
    41     5     4    1
    42     4     1    1
    43     1     2    2
    44     1     3    1
    45     1    24    1
    46    24    25    1
    47    25    26    2
    48    25    27    1
