@<TRIPOS>MOLECULE
UDP-glaA
 43 45 0 0 0
SMALL
GASTEIGER

@<TRIPOS>ATOM
      1 P          22.5037   75.3861   -5.5966 P.3     1  UNL1        0.2189
      2 O          21.7367   76.7881   -5.3447 O.3     1  UNL1       -0.4371
      3 O          23.7643   75.4904   -6.4041 O.2     1  UNL1       -0.5170
      4 O          21.3584   74.4189   -6.2033 O.3     1  UNL1       -0.3112
      5 C          21.7572   73.2456   -6.8915 C.3     1  UNL1        0.1811
      6 O          20.1606   71.5901   -7.5877 O.3     1  UNL1       -0.3308
      7 O          18.8803   73.7722   -9.1973 O.3     1  UNL1       -0.3794
      8 O          17.2648   73.6227   -7.0056 O.3     1  UNL1       -0.3779
      9 C          19.5078   73.8436   -7.9171 C.3     1  UNL1        0.1713
     10 C          18.6142   73.2310   -6.8593 C.3     1  UNL1        0.1895
     11 C          20.6953   72.8899   -7.9223 C.3     1  UNL1        0.1764
     12 C          18.8195   71.7443   -7.0947 C.3     1  UNL1        0.2383
     13 H          19.5040   74.1395   -9.8466 H       1  UNL1        0.2105
     14 H          17.2342   74.5933   -6.9507 H       1  UNL1        0.2106
     15 O          16.3592   70.7486   -6.1299 O.2     1  UNL1       -0.2464
     16 O          18.3735   68.8003   -2.4713 O.2     1  UNL1       -0.2670
     17 N          18.6720   70.9735   -5.8933 N.ar    1  UNL1       -0.2551
     18 N          17.3638   69.7795   -4.3084 N.ar    1  UNL1       -0.2743
     19 C          17.3917   70.5218   -5.4964 C.ar    1  UNL1        0.3323
     20 C          19.7887   70.6724   -5.1214 C.ar    1  UNL1        0.0869
     21 C          19.7457   69.9631   -3.9914 C.ar    1  UNL1        0.0795
     22 C          18.4471   69.4550   -3.5066 C.ar    1  UNL1        0.2626
     23 H          16.4538   69.4450   -4.0034 H       1  UNL1        0.1734
     24 O          22.7088   74.8111   -4.0991 O.3     1  UNL1       -0.2703
     25 P          23.6756   73.6456   -3.5340 P.3     1  UNL1        0.2208
     26 O          25.1527   74.2905   -3.6698 O.3     1  UNL1       -0.4371
     27 O          23.5116   72.3212   -4.2231 O.2     1  UNL1       -0.5170
     28 O          23.3895   73.6109   -1.9463 O.3     1  UNL1       -0.2858
     29 O          21.8077   72.0241   -1.1852 O.3     1  UNL1       -0.3226
     30 O          22.2550   74.4736    2.1434 O.3     1  UNL1       -0.3794
     31 O          22.1294   75.6215   -0.5348 O.3     1  UNL1       -0.3775
     32 O          21.0070   72.0768    1.5707 O.3     1  UNL1       -0.3792
     33 C          22.6193   73.7687    0.9598 C.3     1  UNL1        0.1718
     34 C          21.7996   74.2696   -0.2341 C.3     1  UNL1        0.1968
     35 C          22.3690   72.2739    1.1769 C.3     1  UNL1        0.1723
     36 C          22.0595   73.4035   -1.4730 C.3     1  UNL1        0.2706
     37 C          22.6182   71.5173   -0.1260 C.3     1  UNL1        0.1830
     38 H          22.7956   74.1231    2.8717 H       1  UNL1        0.2105
     39 H          21.5945   75.8907   -1.3004 H       1  UNL1        0.2106
     40 H          20.4389   72.2048    0.7923 H       1  UNL1        0.2106
     41 O          20.9852   69.8549   -0.3972 O.co2   1  UNL1       -0.5466
     42 O          23.0120   69.1969    0.4127 O.co2   1  UNL1       -0.5466
     43 C          22.2611   70.0708    0.0043 C.2     1  UNL1        0.0799
@<TRIPOS>UNITY_ATOM_ATTR
41 1
charge -1
@<TRIPOS>BOND
     1     1     4    1
     2     1    24    1
     3     1     2    1
     4     1     3    2
     5    25    28    1
     6    25    24    1
     7    25    26    1
     8    25    27    2
     9     6    11    1
    10     6    12    1
    11    29    36    1
    12    29    37    1
    13     7     9    1
    14     7    13    1
    15     8    10    1
    16     8    14    1
    17     4     5    1
    18    28    36    1
    19    30    33    1
    20    30    38    1
    21    31    34    1
    22    31    39    1
    23    32    35    1
    24    32    40    1
    25    41    43   ar
    26    15    19    2
    27    42    43   ar
    28    16    22    2
    29    17    12    1
    30    17    19   ar
    31    17    20   ar
    32    18    19   ar
    33    18    22   ar
    34    18    23    1
    35     9    10    1
    36     9    11    1
    37    10    12    1
    38    11     5    1
    39    33    34    1
    40    33    35    1
    41    34    36    1
    42    35    37    1
    43    37    43    1
    44    20    21   ar
    45    21    22   ar
@<TRIPOS>MOLECULE
UDP-glaA
 43 45 0 0 0
SMALL
GASTEIGER

@<TRIPOS>ATOM
      1 P          22.9674   71.8741   -3.4003 P.3     1  UNL1        0.2189
      2 O          23.7009   72.9372   -4.3745 O.3     1  UNL1       -0.4371
      3 O          23.7110   70.5869   -3.1940 O.2     1  UNL1       -0.5170
      4 O          21.4815   71.7354   -4.0233 O.3     1  UNL1       -0.3112
      5 C          20.6450   70.6915   -3.5543 C.3     1  UNL1        0.1811
      6 O          18.8445   71.8516   -4.6436 O.3     1  UNL1       -0.3308
      7 O          17.0717   70.7223   -2.5051 O.3     1  UNL1       -0.3794
      8 O          16.5714   69.0788   -4.6227 O.3     1  UNL1       -0.3779
      9 C          18.1975   70.1288   -3.1517 C.3     1  UNL1        0.1713
     10 C          17.8335   69.7102   -4.5605 C.3     1  UNL1        0.1895
     11 C          19.2271   71.2231   -3.4003 C.3     1  UNL1        0.1764
     12 C          17.8601   71.0365   -5.3008 C.3     1  UNL1        0.2383
     13 H          17.3623   71.0092   -1.6226 H       1  UNL1        0.2105
     14 H          16.6038   68.3015   -4.0387 H       1  UNL1        0.2106
     15 O          16.0342   70.4694   -7.3792 O.2     1  UNL1       -0.2464
     16 O          19.3691   70.4815  -10.5599 O.2     1  UNL1       -0.2670
     17 N          18.2236   70.8868   -6.6810 N.ar    1  UNL1       -0.2551
     18 N          17.6961   70.4753   -8.9616 N.ar    1  UNL1       -0.2743
     19 C          17.2299   70.6015   -7.6464 C.ar    1  UNL1        0.3323
     20 C          19.5527   71.0224   -7.0664 C.ar    1  UNL1        0.0869
     21 C          19.9812   70.8997   -8.3246 C.ar    1  UNL1        0.0795
     22 C          19.0075   70.6011   -9.3933 C.ar    1  UNL1        0.2626
     23 H          16.9994   70.2696   -9.6725 H       1  UNL1        0.1734
     24 O          22.7173   72.7309   -2.0518 O.3     1  UNL1       -0.2703
     25 P          22.1966   74.2464   -1.8399 P.3     1  UNL1        0.2208
     26 O          20.6784   74.1983   -2.3956 O.3     1  UNL1       -0.4371
     27 O          23.0608   75.2907   -2.4866 O.2     1  UNL1       -0.5170
     28 O          22.0416   74.4057   -0.2416 O.3     1  UNL1       -0.2858
     29 O          21.1487   72.3366    0.4803 O.3     1  UNL1       -0.3226
     30 O          21.7586   74.3252    4.0793 O.3     1  UNL1       -0.3794
     31 O          20.6967   75.7449    1.7636 O.3     1  UNL1       -0.3775
     32 O          21.0582   71.7716    3.2930 O.3     1  UNL1       -0.3792
     33 C          21.9895   73.9283    2.7305 C.3     1  UNL1        0.1718
     34 C          20.8040   74.3277    1.8454 C.3     1  UNL1        0.1968
     35 C          22.1871   72.4105    2.6879 C.3     1  UNL1        0.1723
     36 C          20.9645   73.7553    0.4315 C.3     1  UNL1        0.2706
     37 C          22.2943   71.9475    1.2366 C.3     1  UNL1        0.1830
     38 H          22.5311   74.0508    4.6023 H       1  UNL1        0.2105
     39 H          19.9410   75.9492    1.1874 H       1  UNL1        0.2106
     40 H          20.3040   71.8341    2.6827 H       1  UNL1        0.2106
     41 O          23.3674   69.9710    1.9043 O.co2   1  UNL1       -0.5466
     42 O          21.6060   69.7631    0.4720 O.co2   1  UNL1       -0.5466
     43 C          22.3584   70.4563    1.1412 C.2     1  UNL1        0.0799
@<TRIPOS>UNITY_ATOM_ATTR
41 1
charge -1
@<TRIPOS>BOND
     1     1     4    1
     2     1    24    1
     3     1     2    1
     4     1     3    2
     5    25    28    1
     6    25    24    1
     7    25    26    1
     8    25    27    2
     9     6    11    1
    10     6    12    1
    11    29    36    1
    12    29    37    1
    13     7     9    1
    14     7    13    1
    15     8    10    1
    16     8    14    1
    17     4     5    1
    18    28    36    1
    19    30    33    1
    20    30    38    1
    21    31    34    1
    22    31    39    1
    23    32    35    1
    24    32    40    1
    25    41    43   ar
    26    15    19    2
    27    42    43   ar
    28    16    22    2
    29    17    12    1
    30    17    19   ar
    31    17    20   ar
    32    18    19   ar
    33    18    22   ar
    34    18    23    1
    35     9    10    1
    36     9    11    1
    37    10    12    1
    38    11     5    1
    39    33    34    1
    40    33    35    1
    41    34    36    1
    42    35    37    1
    43    37    43    1
    44    20    21   ar
    45    21    22   ar
@<TRIPOS>MOLECULE
UDP-glaA
 43 45 0 0 0
SMALL
GASTEIGER

@<TRIPOS>ATOM
      1 P          21.6074   73.8932   -5.5040 P.3     1  UNL1        0.2189
      2 O          20.3157   74.5835   -4.8168 O.3     1  UNL1       -0.4371
      3 O          22.7835   74.8047   -5.6991 O.2     1  UNL1       -0.5170
      4 O          21.0168   73.2108   -6.8461 O.3     1  UNL1       -0.3112
      5 C          20.2789   74.0177   -7.7480 C.3     1  UNL1        0.1811
      6 O          19.6519   71.7729   -8.3326 O.3     1  UNL1       -0.3308
      7 O          17.9452   73.0050  -10.4681 O.3     1  UNL1       -0.3794
      8 O          16.1309   72.4243   -8.5170 O.3     1  UNL1       -0.3779
      9 C          18.2272   73.4794   -9.1516 C.3     1  UNL1        0.1713
     10 C          17.4667   72.6656   -8.1260 C.3     1  UNL1        0.1895
     11 C          19.6737   73.1304   -8.8264 C.3     1  UNL1        0.1764
     12 C          18.2937   71.3931   -8.0562 C.3     1  UNL1        0.2383
     13 H          18.4828   73.5289  -11.0862 H       1  UNL1        0.2105
     14 H          15.7028   73.2883   -8.6453 H       1  UNL1        0.2106
     15 O          16.0120   70.1012   -7.0073 O.2     1  UNL1       -0.2464
     16 O          18.1875   69.0465   -3.0838 O.2     1  UNL1       -0.2670
     17 N          18.2360   70.7719   -6.7639 N.ar    1  UNL1       -0.2551
     18 N          17.0967   69.5773   -5.0540 N.ar    1  UNL1       -0.2743
     19 C          17.0412   70.1507   -6.3312 C.ar    1  UNL1        0.3323
     20 C          19.3556   70.7823   -5.9393 C.ar    1  UNL1        0.0869
     21 C          19.3927   70.2308   -4.7243 C.ar    1  UNL1        0.0795
     22 C          18.1863   69.5627   -4.1972 C.ar    1  UNL1        0.2626
     23 H          16.2488   69.1256   -4.7220 H       1  UNL1        0.1734
     24 O          21.8921   72.6223   -4.5454 O.3     1  UNL1       -0.2703
     25 P          23.0728   72.3431   -3.4775 P.3     1  UNL1        0.2208
     26 O          24.3004   73.2331   -4.0406 O.3     1  UNL1       -0.4371
     27 O          23.3981   70.8895   -3.2849 O.2     1  UNL1       -0.5170
     28 O          22.5988   73.1036   -2.1356 O.3     1  UNL1       -0.2858
     29 O          21.6279   71.3898   -0.8243 O.3     1  UNL1       -0.3226
     30 O          21.5160   74.6383    1.7669 O.3     1  UNL1       -0.3794
     31 O          20.8771   74.9743   -1.0589 O.3     1  UNL1       -0.3775
     32 O          21.0253   71.9249    1.9306 O.3     1  UNL1       -0.3792
     33 C          22.0024   73.7832    0.7360 C.3     1  UNL1        0.1718
     34 C          20.9952   73.7092   -0.4165 C.3     1  UNL1        0.1968
     35 C          22.2345   72.3867    1.3194 C.3     1  UNL1        0.1723
     36 C          21.4281   72.6617   -1.4498 C.3     1  UNL1        0.2706
     37 C          22.6197   71.4209    0.2009 C.3     1  UNL1        0.1830
     38 H          22.1827   74.6531    2.4746 H       1  UNL1        0.2105
     39 H          20.2383   74.8762   -1.7849 H       1  UNL1        0.2106
     40 H          20.3972   71.6835    1.2289 H       1  UNL1        0.2106
     41 O          23.3588   69.9866    1.9040 O.co2   1  UNL1       -0.5466
     42 O          22.3104   69.0276    0.1212 O.co2   1  UNL1       -0.5466
     43 C          22.7300   70.0168    0.7043 C.2     1  UNL1        0.0799
@<TRIPOS>UNITY_ATOM_ATTR
41 1
charge -1
@<TRIPOS>BOND
     1     1     4    1
     2     1    24    1
     3     1     2    1
     4     1     3    2
     5    25    28    1
     6    25    24    1
     7    25    26    1
     8    25    27    2
     9     6    11    1
    10     6    12    1
    11    29    36    1
    12    29    37    1
    13     7     9    1
    14     7    13    1
    15     8    10    1
    16     8    14    1
    17     4     5    1
    18    28    36    1
    19    30    33    1
    20    30    38    1
    21    31    34    1
    22    31    39    1
    23    32    35    1
    24    32    40    1
    25    41    43   ar
    26    15    19    2
    27    42    43   ar
    28    16    22    2
    29    17    12    1
    30    17    19   ar
    31    17    20   ar
    32    18    19   ar
    33    18    22   ar
    34    18    23    1
    35     9    10    1
    36     9    11    1
    37    10    12    1
    38    11     5    1
    39    33    34    1
    40    33    35    1
    41    34    36    1
    42    35    37    1
    43    37    43    1
    44    20    21   ar
    45    21    22   ar
@<TRIPOS>MOLECULE
UDP-glaA
 43 45 0 0 0
SMALL
GASTEIGER

@<TRIPOS>ATOM
      1 P          22.6929   71.4877   -2.7068 P.3     1  UNL1        0.2189
      2 O          23.0438   72.9478   -3.3088 O.3     1  UNL1       -0.4371
      3 O          23.5405   70.3661   -3.2320 O.2     1  UNL1       -0.5170
      4 O          21.1009   71.3385   -2.9493 O.3     1  UNL1       -0.3112
      5 C          20.4430   72.3094   -3.7455 C.3     1  UNL1        0.1811
      6 O          18.2978   72.3604   -4.8270 O.3     1  UNL1       -0.3308
      7 O          17.2517   70.9346   -2.4054 O.3     1  UNL1       -0.3794
      8 O          17.5118   68.9153   -4.2193 O.3     1  UNL1       -0.3779
      9 C          18.5146   70.8005   -3.0571 C.3     1  UNL1        0.1713
     10 C          18.3570   70.0388   -4.3562 C.3     1  UNL1        0.1895
     11 C          18.9398   72.1791   -3.5455 C.3     1  UNL1        0.1764
     12 C          17.7747   71.0992   -5.2752 C.3     1  UNL1        0.2383
     13 H          17.3953   71.4611   -1.6005 H       1  UNL1        0.2105
     14 H          17.8981   68.3398   -3.5368 H       1  UNL1        0.2106
     15 O          15.9658   70.4293   -7.3380 O.2     1  UNL1       -0.2464
     16 O          19.3160   70.3575  -10.5018 O.2     1  UNL1       -0.2670
     17 N          18.1467   70.9001   -6.6468 N.ar    1  UNL1       -0.2551
     18 N          17.6354   70.3935   -8.9119 N.ar    1  UNL1       -0.2743
     19 C          17.1613   70.5653   -7.6047 C.ar    1  UNL1        0.3323
     20 C          19.4760   71.0365   -7.0313 C.ar    1  UNL1        0.0869
     21 C          19.9121   70.8699   -8.2818 C.ar    1  UNL1        0.0795
     22 C          18.9472   70.5182   -9.3424 C.ar    1  UNL1        0.2626
     23 H          16.9446   70.1518   -9.6173 H       1  UNL1        0.1734
     24 O          22.7969   71.7197   -1.1098 O.3     1  UNL1       -0.2703
     25 P          22.4714   70.7329    0.1283 P.3     1  UNL1        0.2208
     26 O          23.7451   69.7362    0.1532 O.3     1  UNL1       -0.4371
     27 O          21.1431   70.0389    0.0302 O.2     1  UNL1       -0.5170
     28 O          22.6474   71.6533    1.4420 O.3     1  UNL1       -0.2858
     29 O          21.7999   72.3785    3.5290 O.3     1  UNL1       -0.3226
     30 O          21.1179   75.6918    1.1132 O.3     1  UNL1       -0.3794
     31 O          20.6425   72.9978    0.1020 O.3     1  UNL1       -0.3775
     32 O          20.9462   75.1047    3.8069 O.3     1  UNL1       -0.3792
     33 C          21.7743   74.5295    1.6118 C.3     1  UNL1        0.1718
     34 C          20.8664   73.3027    1.4745 C.3     1  UNL1        0.1968
     35 C          22.1310   74.7552    3.0836 C.3     1  UNL1        0.1723
     36 C          21.4931   72.0834    2.1623 C.3     1  UNL1        0.2706
     37 C          22.7066   73.4704    3.6750 C.3     1  UNL1        0.1830
     38 H          21.7268   76.4421    1.2222 H       1  UNL1        0.2105
     39 H          20.0725   72.2114    0.0653 H       1  UNL1        0.2106
     40 H          20.4022   74.3060    3.9130 H       1  UNL1        0.2106
     41 O          24.2012   74.0648    5.3828 O.co2   1  UNL1       -0.5466
     42 O          22.1343   73.3420    6.0172 O.co2   1  UNL1       -0.5466
     43 C          22.9492   73.6051    5.1447 C.2     1  UNL1        0.0799
@<TRIPOS>UNITY_ATOM_ATTR
41 1
charge -1
@<TRIPOS>BOND
     1     1     4    1
     2     1    24    1
     3     1     2    1
     4     1     3    2
     5    25    28    1
     6    25    24    1
     7    25    26    1
     8    25    27    2
     9     6    11    1
    10     6    12    1
    11    29    36    1
    12    29    37    1
    13     7     9    1
    14     7    13    1
    15     8    10    1
    16     8    14    1
    17     4     5    1
    18    28    36    1
    19    30    33    1
    20    30    38    1
    21    31    34    1
    22    31    39    1
    23    32    35    1
    24    32    40    1
    25    41    43   ar
    26    15    19    2
    27    42    43   ar
    28    16    22    2
    29    17    12    1
    30    17    19   ar
    31    17    20   ar
    32    18    19   ar
    33    18    22   ar
    34    18    23    1
    35     9    10    1
    36     9    11    1
    37    10    12    1
    38    11     5    1
    39    33    34    1
    40    33    35    1
    41    34    36    1
    42    35    37    1
    43    37    43    1
    44    20    21   ar
    45    21    22   ar
@<TRIPOS>MOLECULE
UDP-glaA
 43 45 0 0 0
SMALL
GASTEIGER

@<TRIPOS>ATOM
      1 P          22.9266   74.0472   -4.6752 P.3     1  UNL1        0.2189
      2 O          23.8443   75.2841   -5.1704 O.3     1  UNL1       -0.4371
      3 O          23.6775   72.7841   -4.3704 O.2     1  UNL1       -0.5170
      4 O          21.7846   73.9286   -5.8142 O.3     1  UNL1       -0.3112
      5 C          22.1214   73.3226   -7.0506 C.3     1  UNL1        0.1811
      6 O          20.4923   73.3198   -8.8170 O.3     1  UNL1       -0.3308
      7 O          20.7425   76.3078   -8.7992 O.3     1  UNL1       -0.3794
      8 O          18.4347   75.8952   -7.4066 O.3     1  UNL1       -0.3779
      9 C          20.7940   75.3906   -7.7066 C.3     1  UNL1        0.1713
     10 C          19.4072   74.8707   -7.3916 C.3     1  UNL1        0.1895
     11 C          21.5057   74.1314   -8.1835 C.3     1  UNL1        0.1764
     12 C          19.1952   73.8481   -8.4950 C.3     1  UNL1        0.2383
     13 H          21.6554   76.5832   -8.9897 H       1  UNL1        0.2105
     14 H          18.7012   76.5614   -6.7499 H       1  UNL1        0.2106
     15 O          16.3924   73.8172   -8.8392 O.2     1  UNL1       -0.2464
     16 O          16.0149   69.6596   -6.8873 O.2     1  UNL1       -0.2670
     17 N          18.3400   72.7705   -8.0867 N.ar    1  UNL1       -0.2551
     18 N          16.2062   71.7471   -7.8665 N.ar    1  UNL1       -0.2743
     19 C          16.9450   72.8541   -8.3047 C.ar    1  UNL1        0.3323
     20 C          18.8851   71.6458   -7.4773 C.ar    1  UNL1        0.0869
     21 C          18.1674   70.5983   -7.0656 C.ar    1  UNL1        0.0795
     22 C          16.7033   70.6066   -7.2551 C.ar    1  UNL1        0.2626
     23 H          15.2011   71.7856   -8.0124 H       1  UNL1        0.1734
     24 O          22.1228   74.6726   -3.4190 O.3     1  UNL1       -0.2703
     25 P          20.8376   74.1269   -2.6046 P.3     1  UNL1        0.2208
     26 O          20.6651   72.6153   -3.1535 O.3     1  UNL1       -0.4371
     27 O          19.6107   74.9816   -2.7457 O.2     1  UNL1       -0.5170
     28 O          21.3585   73.9535   -1.0872 O.3     1  UNL1       -0.2858
     29 O          21.0031   71.8357   -0.0932 O.3     1  UNL1       -0.3226
     30 O          22.0653   74.1671    3.1803 O.3     1  UNL1       -0.3794
     31 O          20.2937   75.2259    1.1196 O.3     1  UNL1       -0.3775
     32 O          21.6378   71.4837    2.6838 O.3     1  UNL1       -0.3792
     33 C          22.0512   73.7060    1.8321 C.3     1  UNL1        0.1718
     34 C          20.6487   73.8517    1.2321 C.3     1  UNL1        0.1968
     35 C          22.4818   72.2368    1.8067 C.3     1  UNL1        0.1723
     36 C          20.5814   73.2021   -0.1557 C.3     1  UNL1        0.2706
     37 C          22.3368   71.6840    0.3906 C.3     1  UNL1        0.1830
     38 H          22.9695   74.0539    3.5196 H       1  UNL1        0.2105
     39 H          19.4053   75.2682    0.7275 H       1  UNL1        0.2106
     40 H          20.7666   71.3840    2.2640 H       1  UNL1        0.2106
     41 O          21.4953   69.5017    0.5737 O.co2   1  UNL1       -0.5466
     42 O          23.7197   69.7225    0.1260 O.co2   1  UNL1       -0.5466
     43 C          22.6230   70.2167    0.3440 C.2     1  UNL1        0.0799
@<TRIPOS>UNITY_ATOM_ATTR
41 1
charge -1
@<TRIPOS>BOND
     1     1     4    1
     2     1    24    1
     3     1     2    1
     4     1     3    2
     5    25    28    1
     6    25    24    1
     7    25    26    1
     8    25    27    2
     9     6    11    1
    10     6    12    1
    11    29    36    1
    12    29    37    1
    13     7     9    1
    14     7    13    1
    15     8    10    1
    16     8    14    1
    17     4     5    1
    18    28    36    1
    19    30    33    1
    20    30    38    1
    21    31    34    1
    22    31    39    1
    23    32    35    1
    24    32    40    1
    25    41    43   ar
    26    15    19    2
    27    42    43   ar
    28    16    22    2
    29    17    12    1
    30    17    19   ar
    31    17    20   ar
    32    18    19   ar
    33    18    22   ar
    34    18    23    1
    35     9    10    1
    36     9    11    1
    37    10    12    1
    38    11     5    1
    39    33    34    1
    40    33    35    1
    41    34    36    1
    42    35    37    1
    43    37    43    1
    44    20    21   ar
    45    21    22   ar
@<TRIPOS>MOLECULE
UDP-glaA
 43 45 0 0 0
SMALL
GASTEIGER

@<TRIPOS>ATOM
      1 P          22.8008   71.5953   -2.2119 P.3     1  UNL1        0.2189
      2 O          23.2454   73.1469   -2.3232 O.3     1  UNL1       -0.4371
      3 O          23.4680   70.6740   -3.1907 O.2     1  UNL1       -0.5170
      4 O          21.1859   71.6466   -2.2832 O.3     1  UNL1       -0.3112
      5 C          20.5545   71.3965   -3.5274 C.3     1  UNL1        0.1811
      6 O          18.6034   72.1887   -4.6849 O.3     1  UNL1       -0.3308
      7 O          17.0129   70.9493   -2.4654 O.3     1  UNL1       -0.3794
      8 O          16.7834   69.1074   -4.4630 O.3     1  UNL1       -0.3779
      9 C          18.2203   70.4931   -3.0753 C.3     1  UNL1        0.1713
     10 C          17.9332   69.9281   -4.4503 C.3     1  UNL1        0.1895
     11 C          19.0709   71.7131   -3.4033 C.3     1  UNL1        0.1764
     12 C          17.7598   71.1889   -5.2800 C.3     1  UNL1        0.2383
     13 H          17.2509   71.3373   -1.6061 H       1  UNL1        0.2105
     14 H          16.9316   68.3862   -3.8273 H       1  UNL1        0.2106
     15 O          16.0284   70.2988   -7.3258 O.2     1  UNL1       -0.2464
     16 O          19.3679   70.5089  -10.4948 O.2     1  UNL1       -0.2670
     17 N          18.1500   71.0027   -6.6483 N.ar    1  UNL1       -0.2551
     18 N          17.6926   70.4035   -8.9024 N.ar    1  UNL1       -0.2743
     19 C          17.2037   70.5509   -7.5976 C.ar    1  UNL1        0.3323
     20 C          19.4583   71.2668   -7.0381 C.ar    1  UNL1        0.0869
     21 C          19.9089   71.1217   -8.2862 C.ar    1  UNL1        0.0795
     22 C          18.9848   70.6532   -9.3379 C.ar    1  UNL1        0.2626
     23 H          17.0300   70.0792   -9.6015 H       1  UNL1        0.1734
     24 O          23.0848   71.2475   -0.6583 O.3     1  UNL1       -0.2703
     25 P          22.1564   70.5326    0.4550 P.3     1  UNL1        0.2208
     26 O          23.2288   69.9731    1.5288 O.3     1  UNL1       -0.4371
     27 O          21.2279   69.4884   -0.0956 O.2     1  UNL1       -0.5170
     28 O          21.4164   71.7498    1.2131 O.3     1  UNL1       -0.2858
     29 O          21.9746   74.0478    1.2983 O.3     1  UNL1       -0.3226
     30 O          20.2450   73.4328    5.0279 O.3     1  UNL1       -0.3794
     31 O          22.0460   71.4444    3.8839 O.3     1  UNL1       -0.3775
     32 O          21.1129   75.6010    3.5530 O.3     1  UNL1       -0.3792
     33 C          20.4673   73.2746    3.6293 C.3     1  UNL1        0.1718
     34 C          21.8878   72.7621    3.3686 C.3     1  UNL1        0.1968
     35 C          20.2631   74.6261    2.9395 C.3     1  UNL1        0.1723
     36 C          22.1944   72.7522    1.8659 C.3     1  UNL1        0.2706
     37 C          20.6348   74.5099    1.4628 C.3     1  UNL1        0.1830
     38 H          19.3369   73.7602    5.1454 H       1  UNL1        0.2105
     39 H          22.9545   71.1598    3.6875 H       1  UNL1        0.2106
     40 H          22.0282   75.4341    3.2710 H       1  UNL1        0.2106
     41 O          21.8089   76.3902    0.6947 O.co2   1  UNL1       -0.5466
     42 O          19.5564   76.3586    0.3450 O.co2   1  UNL1       -0.5466
     43 C          20.5745   75.8378    0.7772 C.2     1  UNL1        0.0799
@<TRIPOS>UNITY_ATOM_ATTR
41 1
charge -1
@<TRIPOS>BOND
     1     1     4    1
     2     1    24    1
     3     1     2    1
     4     1     3    2
     5    25    28    1
     6    25    24    1
     7    25    26    1
     8    25    27    2
     9     6    11    1
    10     6    12    1
    11    29    36    1
    12    29    37    1
    13     7     9    1
    14     7    13    1
    15     8    10    1
    16     8    14    1
    17     4     5    1
    18    28    36    1
    19    30    33    1
    20    30    38    1
    21    31    34    1
    22    31    39    1
    23    32    35    1
    24    32    40    1
    25    41    43   ar
    26    15    19    2
    27    42    43   ar
    28    16    22    2
    29    17    12    1
    30    17    19   ar
    31    17    20   ar
    32    18    19   ar
    33    18    22   ar
    34    18    23    1
    35     9    10    1
    36     9    11    1
    37    10    12    1
    38    11     5    1
    39    33    34    1
    40    33    35    1
    41    34    36    1
    42    35    37    1
    43    37    43    1
    44    20    21   ar
    45    21    22   ar
@<TRIPOS>MOLECULE
UDP-glaA
 43 45 0 0 0
SMALL
GASTEIGER

@<TRIPOS>ATOM
      1 P          21.9363   71.1046   -1.2916 P.3     1  UNL1        0.2189
      2 O          23.3833   70.4450   -1.5888 O.3     1  UNL1       -0.4371
      3 O          20.9266   70.1713   -0.6904 O.2     1  UNL1       -0.5170
      4 O          21.5185   71.7790   -2.7010 O.3     1  UNL1       -0.3112
      5 C          20.7076   71.0346   -3.5941 C.3     1  UNL1        0.1811
      6 O          18.8062   72.0274   -4.6772 O.3     1  UNL1       -0.3308
      7 O          17.1626   70.8371   -2.4697 O.3     1  UNL1       -0.3794
      8 O          16.7433   69.0985   -4.5282 O.3     1  UNL1       -0.3779
      9 C          18.3162   70.3078   -3.1230 C.3     1  UNL1        0.1713
     10 C          17.9568   69.8216   -4.5112 C.3     1  UNL1        0.1895
     11 C          19.2579   71.4661   -3.4250 C.3     1  UNL1        0.1764
     12 C          17.8717   71.1234   -5.2896 C.3     1  UNL1        0.2383
     13 H          17.4484   71.1708   -1.6022 H       1  UNL1        0.2105
     14 H          16.8440   68.3436   -3.9230 H       1  UNL1        0.2106
     15 O          16.0457   70.3941   -7.3167 O.2     1  UNL1       -0.2464
     16 O          19.3159   70.5198  -10.5615 O.2     1  UNL1       -0.2670
     17 N          18.2185   70.9590   -6.6724 N.ar    1  UNL1       -0.2551
     18 N          17.6754   70.4566   -8.9310 N.ar    1  UNL1       -0.2743
     19 C          17.2264   70.5898   -7.6105 C.ar    1  UNL1        0.3323
     20 C          19.5299   71.1630   -7.0871 C.ar    1  UNL1        0.0869
     21 C          19.9422   71.0326   -8.3500 C.ar    1  UNL1        0.0795
     22 C          18.9688   70.6486   -9.3915 C.ar    1  UNL1        0.2626
     23 H          16.9795   70.1912   -9.6226 H       1  UNL1        0.1734
     24 O          22.3030   72.3832   -0.3719 O.3     1  UNL1       -0.2703
     25 P          21.4940   73.7541   -0.0909 P.3     1  UNL1        0.2208
     26 O          19.9689   73.3688   -0.4672 O.3     1  UNL1       -0.4371
     27 O          22.0314   74.9482   -0.8264 O.2     1  UNL1       -0.5170
     28 O          21.4924   73.9059    1.5157 O.3     1  UNL1       -0.2858
     29 O          23.5692   74.2306    2.6022 O.3     1  UNL1       -0.3226
     30 O          21.0811   73.2012    5.7690 O.3     1  UNL1       -0.3794
     31 O          20.8732   71.8164    3.2107 O.3     1  UNL1       -0.3775
     32 O          23.6640   74.1332    5.4693 O.3     1  UNL1       -0.3792
     33 C          21.4709   73.7726    4.5232 C.3     1  UNL1        0.1718
     34 C          21.9493   72.6803    3.5607 C.3     1  UNL1        0.1968
     35 C          22.5956   74.7815    4.7714 C.3     1  UNL1        0.1723
     36 C          22.5307   73.2986    2.2832 C.3     1  UNL1        0.2706
     37 C          23.1241   75.2997    3.4357 C.3     1  UNL1        0.1830
     38 H          20.7887   73.9273    6.3460 H       1  UNL1        0.2105
     39 H          21.2208   71.1495    2.5949 H       1  UNL1        0.2106
     40 H          24.1306   73.5501    4.8468 H       1  UNL1        0.2106
     41 O          23.9387   77.4929    3.6084 O.co2   1  UNL1       -0.5466
     42 O          25.4604   75.8039    3.7778 O.co2   1  UNL1       -0.5466
     43 C          24.3107   76.1902    3.6251 C.2     1  UNL1        0.0799
@<TRIPOS>UNITY_ATOM_ATTR
41 1
charge -1
@<TRIPOS>BOND
     1     1     4    1
     2     1    24    1
     3     1     2    1
     4     1     3    2
     5    25    28    1
     6    25    24    1
     7    25    26    1
     8    25    27    2
     9     6    11    1
    10     6    12    1
    11    29    36    1
    12    29    37    1
    13     7     9    1
    14     7    13    1
    15     8    10    1
    16     8    14    1
    17     4     5    1
    18    28    36    1
    19    30    33    1
    20    30    38    1
    21    31    34    1
    22    31    39    1
    23    32    35    1
    24    32    40    1
    25    41    43   ar
    26    15    19    2
    27    42    43   ar
    28    16    22    2
    29    17    12    1
    30    17    19   ar
    31    17    20   ar
    32    18    19   ar
    33    18    22   ar
    34    18    23    1
    35     9    10    1
    36     9    11    1
    37    10    12    1
    38    11     5    1
    39    33    34    1
    40    33    35    1
    41    34    36    1
    42    35    37    1
    43    37    43    1
    44    20    21   ar
    45    21    22   ar
@<TRIPOS>MOLECULE
UDP-glaA
 43 45 0 0 0
SMALL
GASTEIGER

@<TRIPOS>ATOM
      1 P          22.5638   72.6483   -2.7320 P.3     1  UNL1        0.2189
      2 O          23.7041   71.9465   -3.6402 O.3     1  UNL1       -0.4371
      3 O          23.0722   73.3425   -1.5026 O.2     1  UNL1       -0.5170
      4 O          21.4868   71.4687   -2.4786 O.3     1  UNL1       -0.3112
      5 C          20.7259   70.9983   -3.5781 C.3     1  UNL1        0.1811
      6 O          18.8619   72.0383   -4.6817 O.3     1  UNL1       -0.3308
      7 O          17.1670   70.9013   -2.4849 O.3     1  UNL1       -0.3794
      8 O          16.7189   69.1671   -4.5410 O.3     1  UNL1       -0.3779
      9 C          18.3115   70.3385   -3.1260 C.3     1  UNL1        0.1713
     10 C          17.9514   69.8570   -4.5157 C.3     1  UNL1        0.1895
     11 C          19.2870   71.4697   -3.4235 C.3     1  UNL1        0.1764
     12 C          17.9087   71.1578   -5.2993 C.3     1  UNL1        0.2383
     13 H          17.4540   71.2304   -1.6161 H       1  UNL1        0.2105
     14 H          16.7936   68.4120   -3.9324 H       1  UNL1        0.2106
     15 O          16.0838   70.4583   -7.3380 O.2     1  UNL1       -0.2464
     16 O          19.3825   70.4963  -10.5560 O.2     1  UNL1       -0.2670
     17 N          18.2631   70.9789   -6.6783 N.ar    1  UNL1       -0.2551
     18 N          17.7278   70.4771   -8.9390 N.ar    1  UNL1       -0.2743
     19 C          17.2709   70.6267   -7.6229 C.ar    1  UNL1        0.3323
     20 C          19.5820   71.1522   -7.0831 C.ar    1  UNL1        0.0869
     21 C          20.0017   71.0065   -8.3418 C.ar    1  UNL1        0.0795
     22 C          19.0288   70.6385   -9.3895 C.ar    1  UNL1        0.2626
     23 H          17.0319   70.2235   -9.6350 H       1  UNL1        0.1734
     24 O          21.8047   73.6128   -3.7850 O.3     1  UNL1       -0.2703
     25 P          22.2639   74.1756   -5.2289 P.3     1  UNL1        0.2208
     26 O          22.4994   72.8294   -6.0940 O.3     1  UNL1       -0.4371
     27 O          23.4485   75.0977   -5.1823 O.2     1  UNL1       -0.5170
     28 O          20.9302   74.8347   -5.8540 O.3     1  UNL1       -0.2858
     29 O          19.9078   74.6464   -7.9797 O.3     1  UNL1       -0.3226
     30 O          19.1836   78.6242   -7.0142 O.3     1  UNL1       -0.3794
     31 O          21.7661   77.4032   -6.4258 O.3     1  UNL1       -0.3775
     32 O          18.3906   76.8638   -8.9896 O.3     1  UNL1       -0.3792
     33 C          19.3733   77.2264   -6.8129 C.3     1  UNL1        0.1718
     34 C          20.7779   76.8077   -7.2600 C.3     1  UNL1        0.1968
     35 C          18.3180   76.4625   -7.6175 C.3     1  UNL1        0.1723
     36 C          20.9324   75.2827   -7.2087 C.3     1  UNL1        0.2706
     37 C          18.5915   74.9627   -7.5290 C.3     1  UNL1        0.1830
     38 H          18.2829   78.8433   -6.7206 H       1  UNL1        0.2105
     39 H          22.6353   77.1026   -6.7402 H       1  UNL1        0.2106
     40 H          19.1855   76.4681   -9.3855 H       1  UNL1        0.2106
     41 O          16.4738   73.9866   -7.7861 O.co2   1  UNL1       -0.5466
     42 O          17.9299   73.7814   -9.5281 O.co2   1  UNL1       -0.5466
     43 C          17.6625   74.1844   -8.4054 C.2     1  UNL1        0.0799
@<TRIPOS>UNITY_ATOM_ATTR
41 1
charge -1
@<TRIPOS>BOND
     1     1     4    1
     2     1    24    1
     3     1     2    1
     4     1     3    2
     5    25    28    1
     6    25    24    1
     7    25    26    1
     8    25    27    2
     9     6    11    1
    10     6    12    1
    11    29    36    1
    12    29    37    1
    13     7     9    1
    14     7    13    1
    15     8    10    1
    16     8    14    1
    17     4     5    1
    18    28    36    1
    19    30    33    1
    20    30    38    1
    21    31    34    1
    22    31    39    1
    23    32    35    1
    24    32    40    1
    25    41    43   ar
    26    15    19    2
    27    42    43   ar
    28    16    22    2
    29    17    12    1
    30    17    19   ar
    31    17    20   ar
    32    18    19   ar
    33    18    22   ar
    34    18    23    1
    35     9    10    1
    36     9    11    1
    37    10    12    1
    38    11     5    1
    39    33    34    1
    40    33    35    1
    41    34    36    1
    42    35    37    1
    43    37    43    1
    44    20    21   ar
    45    21    22   ar
@<TRIPOS>MOLECULE
UDP-glaA
 43 45 0 0 0
SMALL
GASTEIGER

@<TRIPOS>ATOM
      1 P          21.9611   70.6125    0.0453 P.3     1  UNL1        0.2189
      2 O          22.6070   69.1532    0.3109 O.3     1  UNL1       -0.4371
      3 O          22.8781   71.5998   -0.6153 O.2     1  UNL1       -0.5170
      4 O          21.3800   71.0502    1.4897 O.3     1  UNL1       -0.3112
      5 C          21.5634   72.3895    1.9161 C.3     1  UNL1        0.1811
      6 O          23.3594   72.7424    3.4731 O.3     1  UNL1       -0.3308
      7 O          21.2362   73.0173    5.5725 O.3     1  UNL1       -0.3794
      8 O          21.9004   75.6108    5.0541 O.3     1  UNL1       -0.3779
      9 C          21.2169   73.4364    4.2081 C.3     1  UNL1        0.1713
     10 C          22.0852   74.6629    4.0230 C.3     1  UNL1        0.1895
     11 C          21.9605   72.3924    3.3855 C.3     1  UNL1        0.1764
     12 C          23.4815   74.0643    4.0235 C.3     1  UNL1        0.2383
     13 H          20.6997   72.2088    5.6350 H       1  UNL1        0.2105
     14 H          20.9605   75.8614    5.0563 H       1  UNL1        0.2106
     15 O          25.9546   75.0630    4.9518 O.2     1  UNL1       -0.2464
     16 O          26.9330   76.9542    0.8647 O.2     1  UNL1       -0.2670
     17 N          24.4023   74.8202    3.2235 N.ar    1  UNL1       -0.2551
     18 N          26.4399   76.0045    2.9161 N.ar    1  UNL1       -0.2743
     19 C          25.6174   75.2764    3.7859 C.ar    1  UNL1        0.3323
     20 C          24.0977   75.1029    1.8966 C.ar    1  UNL1        0.0869
     21 C          24.8927   75.7980    1.0801 C.ar    1  UNL1        0.0795
     22 C          26.1798   76.3112    1.5894 C.ar    1  UNL1        0.2626
     23 H          27.3185   76.3430    3.2990 H       1  UNL1        0.1734
     24 O          20.6231   70.2690   -0.7954 O.3     1  UNL1       -0.2703
     25 P          20.3958   70.0386   -2.3790 P.3     1  UNL1        0.2208
     26 O          19.1836   68.9689   -2.4282 O.3     1  UNL1       -0.4371
     27 O          21.6292   69.6124   -3.1227 O.2     1  UNL1       -0.5170
     28 O          19.7445   71.4185   -2.9037 O.3     1  UNL1       -0.2858
     29 O          19.2548   71.0969   -5.1964 O.3     1  UNL1       -0.3226
     30 O          17.8717   74.9623   -4.5443 O.3     1  UNL1       -0.3794
     31 O          20.3808   74.0665   -3.3576 O.3     1  UNL1       -0.3775
     32 O          17.7543   73.1088   -6.5890 O.3     1  UNL1       -0.3792
     33 C          18.1736   73.5988   -4.2611 C.3     1  UNL1        0.1718
     34 C          19.6819   73.3514   -4.3711 C.3     1  UNL1        0.1968
     35 C          17.4229   72.7086   -5.2552 C.3     1  UNL1        0.1723
     36 C          19.9984   71.8566   -4.2378 C.3     1  UNL1        0.2706
     37 C          17.8432   71.2535   -5.0600 C.3     1  UNL1        0.1830
     38 H          16.9088   75.0720   -4.4655 H       1  UNL1        0.2105
     39 H          21.3275   73.8721   -3.4611 H       1  UNL1        0.2106
     40 H          18.6585   72.8104   -6.7853 H       1  UNL1        0.2106
     41 O          16.5754   69.3322   -5.5127 O.co2   1  UNL1       -0.5466
     42 O          17.3080   70.5382   -7.3032 O.co2   1  UNL1       -0.5466
     43 C          17.2324   70.3638   -6.0956 C.2     1  UNL1        0.0799
@<TRIPOS>UNITY_ATOM_ATTR
41 1
charge -1
@<TRIPOS>BOND
     1     1     4    1
     2     1    24    1
     3     1     2    1
     4     1     3    2
     5    25    28    1
     6    25    24    1
     7    25    26    1
     8    25    27    2
     9     6    11    1
    10     6    12    1
    11    29    36    1
    12    29    37    1
    13     7     9    1
    14     7    13    1
    15     8    10    1
    16     8    14    1
    17     4     5    1
    18    28    36    1
    19    30    33    1
    20    30    38    1
    21    31    34    1
    22    31    39    1
    23    32    35    1
    24    32    40    1
    25    41    43   ar
    26    15    19    2
    27    42    43   ar
    28    16    22    2
    29    17    12    1
    30    17    19   ar
    31    17    20   ar
    32    18    19   ar
    33    18    22   ar
    34    18    23    1
    35     9    10    1
    36     9    11    1
    37    10    12    1
    38    11     5    1
    39    33    34    1
    40    33    35    1
    41    34    36    1
    42    35    37    1
    43    37    43    1
    44    20    21   ar
    45    21    22   ar
@<TRIPOS>MOLECULE
UDP-glaA
 43 45 0 0 0
SMALL
GASTEIGER

@<TRIPOS>ATOM
      1 P          20.2496   70.0765   -2.1471 P.3     1  UNL1        0.2189
      2 O          21.3724   69.3986   -3.0942 O.3     1  UNL1       -0.4371
      3 O          18.8871   69.4536   -2.2353 O.2     1  UNL1       -0.5170
      4 O          20.3283   71.6497   -2.5140 O.3     1  UNL1       -0.3112
      5 C          20.3021   72.0289   -3.8795 C.3     1  UNL1        0.1811
      6 O          19.2181   73.4617   -5.4752 O.3     1  UNL1       -0.3308
      7 O          17.0190   73.7352   -3.4552 O.3     1  UNL1       -0.3794
      8 O          15.9942   71.9152   -5.2083 O.3     1  UNL1       -0.3779
      9 C          17.8261   72.5988   -3.7634 C.3     1  UNL1        0.1713
     10 C          17.3992   71.9942   -5.0843 C.3     1  UNL1        0.1895
     11 C          19.2319   73.0928   -4.0785 C.3     1  UNL1        0.1764
     12 C          18.0209   72.9525   -6.0859 C.3     1  UNL1        0.2383
     13 H          17.3535   74.1111   -2.6231 H       1  UNL1        0.2105
     14 H          15.6650   71.3752   -4.4693 H       1  UNL1        0.2106
     15 O          17.5480   74.0509   -8.6442 O.2     1  UNL1       -0.2464
     16 O          19.3791   70.3872  -10.7567 O.2     1  UNL1       -0.2670
     17 N          18.3643   72.3079   -7.3211 N.ar    1  UNL1       -0.2551
     18 N          18.4597   72.2256   -9.6945 N.ar    1  UNL1       -0.2743
     19 C          18.0831   72.9446   -8.5524 C.ar    1  UNL1        0.3323
     20 C          18.9730   71.0578   -7.3047 C.ar    1  UNL1        0.0869
     21 C          19.3264   70.3853   -8.4023 C.ar    1  UNL1        0.0795
     22 C          19.0669   70.9799   -9.7285 C.ar    1  UNL1        0.2626
     23 H          18.2666   72.6638  -10.5910 H       1  UNL1        0.1734
     24 O          20.9261   70.0116   -0.6796 O.3     1  UNL1       -0.2703
     25 P          22.3763   70.4989   -0.1582 P.3     1  UNL1        0.2208
     26 O          23.2690   70.5159   -1.5069 O.3     1  UNL1       -0.4371
     27 O          22.9453   69.6616    0.9513 O.2     1  UNL1       -0.5170
     28 O          22.1742   72.0551    0.2174 O.3     1  UNL1       -0.2858
     29 O          21.7491   72.5386    2.4945 O.3     1  UNL1       -0.3226
     30 O          20.8246   76.1475    0.6505 O.3     1  UNL1       -0.3794
     31 O          20.0370   73.6171   -0.5671 O.3     1  UNL1       -0.3775
     32 O          21.1023   75.2333    3.2422 O.3     1  UNL1       -0.3792
     33 C          21.4971   74.9126    0.8808 C.3     1  UNL1        0.1718
     34 C          20.5162   73.7407    0.7678 C.3     1  UNL1        0.1968
     35 C          22.1202   74.9413    2.2791 C.3     1  UNL1        0.1723
     36 C          21.1900   72.4265    1.1816 C.3     1  UNL1        0.2706
     37 C          22.7233   73.5756    2.6003 C.3     1  UNL1        0.1830
     38 H          21.4817   76.8595    0.7342 H       1  UNL1        0.2105
     39 H          19.4290   72.8591   -0.5915 H       1  UNL1        0.2106
     40 H          20.5446   74.4444    3.3510 H       1  UNL1        0.2106
     41 O          22.3082   72.9519    4.8235 O.co2   1  UNL1       -0.5466
     42 O          24.3227   73.9205    4.3759 O.co2   1  UNL1       -0.5466
     43 C          23.2291   73.5178    4.0067 C.2     1  UNL1        0.0799
@<TRIPOS>UNITY_ATOM_ATTR
41 1
charge -1
@<TRIPOS>BOND
     1     1     4    1
     2     1    24    1
     3     1     2    1
     4     1     3    2
     5    25    28    1
     6    25    24    1
     7    25    26    1
     8    25    27    2
     9     6    11    1
    10     6    12    1
    11    29    36    1
    12    29    37    1
    13     7     9    1
    14     7    13    1
    15     8    10    1
    16     8    14    1
    17     4     5    1
    18    28    36    1
    19    30    33    1
    20    30    38    1
    21    31    34    1
    22    31    39    1
    23    32    35    1
    24    32    40    1
    25    41    43   ar
    26    15    19    2
    27    42    43   ar
    28    16    22    2
    29    17    12    1
    30    17    19   ar
    31    17    20   ar
    32    18    19   ar
    33    18    22   ar
    34    18    23    1
    35     9    10    1
    36     9    11    1
    37    10    12    1
    38    11     5    1
    39    33    34    1
    40    33    35    1
    41    34    36    1
    42    35    37    1
    43    37    43    1
    44    20    21   ar
    45    21    22   ar
@<TRIPOS>MOLECULE
UDP-glaA
 43 45 0 0 0
SMALL
GASTEIGER

@<TRIPOS>ATOM
      1 P          21.3866   70.3438   -1.5968 P.3     1  UNL1        0.2189
      2 O          22.9767   70.5973   -1.7536 O.3     1  UNL1       -0.4371
      3 O          20.8749   69.1009   -2.2643 O.2     1  UNL1       -0.5170
      4 O          20.7200   71.7321   -2.0906 O.3     1  UNL1       -0.3112
      5 C          20.2255   71.8121   -3.4166 C.3     1  UNL1        0.1811
      6 O          18.2867   72.4464   -4.6868 O.3     1  UNL1       -0.3308
      7 O          16.6722   71.1561   -2.5142 O.3     1  UNL1       -0.3794
      8 O          16.6622   69.2573   -4.4713 O.3     1  UNL1       -0.3779
      9 C          17.9354   70.7669   -3.0532 C.3     1  UNL1        0.1713
     10 C          17.7541   70.1524   -4.4251 C.3     1  UNL1        0.1895
     11 C          18.7201   72.0326   -3.3722 C.3     1  UNL1        0.1764
     12 C          17.5405   71.3794   -5.2950 C.3     1  UNL1        0.2383
     13 H          16.8415   71.5788   -1.6550 H       1  UNL1        0.2105
     14 H          16.8252   68.5624   -3.8104 H       1  UNL1        0.2106
     15 O          15.9897   70.2834   -7.3853 O.2     1  UNL1       -0.2464
     16 O          19.4450   70.6894  -10.4077 O.2     1  UNL1       -0.2670
     17 N          18.0092   71.1879   -6.6378 N.ar    1  UNL1       -0.2551
     18 N          17.7115   70.4858   -8.8888 N.ar    1  UNL1       -0.2743
     19 C          17.1507   70.6284   -7.6128 C.ar    1  UNL1        0.3323
     20 C          19.3073   71.5527   -6.9775 C.ar    1  UNL1        0.0869
     21 C          19.8271   71.4109   -8.1987 C.ar    1  UNL1        0.0795
     22 C          18.9968   70.8336   -9.2744 C.ar    1  UNL1        0.2626
     23 H          17.1126   70.0851   -9.6057 H       1  UNL1        0.1734
     24 O          21.1691   70.3862    0.0051 O.3     1  UNL1       -0.2703
     25 P          22.0209   71.1112    1.1719 P.3     1  UNL1        0.2208
     26 O          23.2033   70.0517    1.4811 O.3     1  UNL1       -0.4371
     27 O          21.2099   71.5034    2.3736 O.2     1  UNL1       -0.5170
     28 O          22.7585   72.3427    0.4347 O.3     1  UNL1       -0.2858
     29 O          23.7558   74.4489    0.8452 O.3     1  UNL1       -0.3226
     30 O          20.8937   75.3841   -2.0207 O.3     1  UNL1       -0.3794
     31 O          20.2782   73.5175    0.1340 O.3     1  UNL1       -0.3775
     32 O          22.9947   76.6847   -0.7860 O.3     1  UNL1       -0.3792
     33 C          21.8758   74.6148   -1.3323 C.3     1  UNL1        0.1718
     34 C          21.4326   74.3502    0.1106 C.3     1  UNL1        0.1968
     35 C          23.2011   75.3815   -1.3411 C.3     1  UNL1        0.1723
     36 C          22.5544   73.6733    0.9079 C.3     1  UNL1        0.2706
     37 C          24.2282   74.6408   -0.4874 C.3     1  UNL1        0.1830
     38 H          21.2165   75.5291   -2.9264 H       1  UNL1        0.2105
     39 H          20.0414   73.3704    1.0652 H       1  UNL1        0.2106
     40 H          22.8873   76.5971    0.1762 H       1  UNL1        0.2106
     41 O          25.5197   76.1165    0.8004 O.co2   1  UNL1       -0.5466
     42 O          26.4005   75.4291   -1.1867 O.co2   1  UNL1       -0.5466
     43 C          25.4988   75.4197   -0.3614 C.2     1  UNL1        0.0799
@<TRIPOS>UNITY_ATOM_ATTR
41 1
charge -1
@<TRIPOS>BOND
     1     1     4    1
     2     1    24    1
     3     1     2    1
     4     1     3    2
     5    25    28    1
     6    25    24    1
     7    25    26    1
     8    25    27    2
     9     6    11    1
    10     6    12    1
    11    29    36    1
    12    29    37    1
    13     7     9    1
    14     7    13    1
    15     8    10    1
    16     8    14    1
    17     4     5    1
    18    28    36    1
    19    30    33    1
    20    30    38    1
    21    31    34    1
    22    31    39    1
    23    32    35    1
    24    32    40    1
    25    41    43   ar
    26    15    19    2
    27    42    43   ar
    28    16    22    2
    29    17    12    1
    30    17    19   ar
    31    17    20   ar
    32    18    19   ar
    33    18    22   ar
    34    18    23    1
    35     9    10    1
    36     9    11    1
    37    10    12    1
    38    11     5    1
    39    33    34    1
    40    33    35    1
    41    34    36    1
    42    35    37    1
    43    37    43    1
    44    20    21   ar
    45    21    22   ar
@<TRIPOS>MOLECULE
UDP-glaA
 43 45 0 0 0
SMALL
GASTEIGER

@<TRIPOS>ATOM
      1 P          20.3117   69.9707   -2.2383 P.3     1  UNL1        0.2189
      2 O          21.6448   69.6062   -3.0793 O.3     1  UNL1       -0.4371
      3 O          19.1025   69.1511   -2.5822 O.2     1  UNL1       -0.5170
      4 O          20.1551   71.5689   -2.4295 O.3     1  UNL1       -0.3112
      5 C          20.2001   72.1018   -3.7422 C.3     1  UNL1        0.1811
      6 O          18.9983   73.4698   -5.3102 O.3     1  UNL1       -0.3308
      7 O          16.7969   73.5410   -3.2755 O.3     1  UNL1       -0.3794
      8 O          15.9060   71.6736   -5.0516 O.3     1  UNL1       -0.3779
      9 C          17.6880   72.4756   -3.6052 C.3     1  UNL1        0.1713
     10 C          17.3013   71.8596   -4.9333 C.3     1  UNL1        0.1895
     11 C          19.0493   73.0821   -3.9195 C.3     1  UNL1        0.1764
     12 C          17.8406   72.8784   -5.9228 C.3     1  UNL1        0.2383
     13 H          17.1063   73.9293   -2.4393 H       1  UNL1        0.2105
     14 H          15.6243   71.0985   -4.3195 H       1  UNL1        0.2106
     15 O          17.7391   74.1927   -8.4203 O.2     1  UNL1       -0.2464
     16 O          19.3410   70.4864  -10.6419 O.2     1  UNL1       -0.2670
     17 N          18.2256   72.2811   -7.1696 N.ar    1  UNL1       -0.2551
     18 N          18.5363   72.3461   -9.5250 N.ar    1  UNL1       -0.2743
     19 C          18.1358   73.0272   -8.3679 C.ar    1  UNL1        0.3323
     20 C          18.6861   70.9694   -7.1968 C.ar    1  UNL1        0.0869
     21 C          19.0648   70.3342   -8.3081 C.ar    1  UNL1        0.0795
     22 C          19.0008   71.0422   -9.6020 C.ar    1  UNL1        0.2626
     23 H          18.4796   72.8627  -10.3985 H       1  UNL1        0.1734
     24 O          20.8030   69.8350   -0.7036 O.3     1  UNL1       -0.2703
     25 P          22.0827   70.4619    0.0594 P.3     1  UNL1        0.2208
     26 O          22.7120   71.4697   -1.0381 O.3     1  UNL1       -0.4371
     27 O          23.0474   69.4388    0.5869 O.2     1  UNL1       -0.5170
     28 O          21.4529   71.4285    1.1877 O.3     1  UNL1       -0.2858
     29 O          22.0056   73.7258    1.0606 O.3     1  UNL1       -0.3226
     30 O          20.3628   73.4346    4.8679 O.3     1  UNL1       -0.3794
     31 O          22.1438   71.3567    3.8599 O.3     1  UNL1       -0.3775
     32 O          21.1902   75.4678    3.1911 O.3     1  UNL1       -0.3792
     33 C          20.5539   73.1560    3.4837 C.3     1  UNL1        0.1718
     34 C          21.9698   72.6245    3.2360 C.3     1  UNL1        0.1968
     35 C          20.3299   74.4424    2.6840 C.3     1  UNL1        0.1723
     36 C          22.2423   72.4846    1.7332 C.3     1  UNL1        0.2706
     37 C          20.6685   74.1989    1.2149 C.3     1  UNL1        0.1830
     38 H          19.4566   73.7699    4.9772 H       1  UNL1        0.2105
     39 H          23.0485   71.0572    3.6683 H       1  UNL1        0.2106
     40 H          22.0995   75.2781    2.9039 H       1  UNL1        0.2106
     41 O          21.8012   76.0625    0.3502 O.co2   1  UNL1       -0.5466
     42 O          19.5735   75.8984   -0.1052 O.co2   1  UNL1       -0.5466
     43 C          20.5885   75.4623    0.4183 C.2     1  UNL1        0.0799
@<TRIPOS>UNITY_ATOM_ATTR
41 1
charge -1
@<TRIPOS>BOND
     1     1     4    1
     2     1    24    1
     3     1     2    1
     4     1     3    2
     5    25    28    1
     6    25    24    1
     7    25    26    1
     8    25    27    2
     9     6    11    1
    10     6    12    1
    11    29    36    1
    12    29    37    1
    13     7     9    1
    14     7    13    1
    15     8    10    1
    16     8    14    1
    17     4     5    1
    18    28    36    1
    19    30    33    1
    20    30    38    1
    21    31    34    1
    22    31    39    1
    23    32    35    1
    24    32    40    1
    25    41    43   ar
    26    15    19    2
    27    42    43   ar
    28    16    22    2
    29    17    12    1
    30    17    19   ar
    31    17    20   ar
    32    18    19   ar
    33    18    22   ar
    34    18    23    1
    35     9    10    1
    36     9    11    1
    37    10    12    1
    38    11     5    1
    39    33    34    1
    40    33    35    1
    41    34    36    1
    42    35    37    1
    43    37    43    1
    44    20    21   ar
    45    21    22   ar
@<TRIPOS>MOLECULE
UDP-glaA
 43 45 0 0 0
SMALL
GASTEIGER

@<TRIPOS>ATOM
      1 P          22.1050   70.5641   -0.0684 P.3     1  UNL1        0.2189
      2 O          22.0292   69.0145    0.3902 O.3     1  UNL1       -0.4371
      3 O          23.4939   71.1093   -0.2294 O.2     1  UNL1       -0.5170
      4 O          21.1674   71.3335    1.0015 O.3     1  UNL1       -0.3112
      5 C          21.6650   72.5103    1.6152 C.3     1  UNL1        0.1811
      6 O          22.3611   72.7939    3.8976 O.3     1  UNL1       -0.3308
      7 O          19.4736   73.3128    4.5177 O.3     1  UNL1       -0.3794
      8 O          20.5298   75.8260    4.4532 O.3     1  UNL1       -0.3779
      9 C          20.2283   73.6748    3.3613 C.3     1  UNL1        0.1713
     10 C          21.1599   74.8248    3.6810 C.3     1  UNL1        0.1895
     11 C          21.2062   72.5451    3.0661 C.3     1  UNL1        0.1764
     12 C          22.2790   74.1250    4.4332 C.3     1  UNL1        0.2383
     13 H          18.9216   72.5495    4.2763 H       1  UNL1        0.2105
     14 H          19.7622   76.1454    3.9483 H       1  UNL1        0.2106
     15 O          23.7322   75.3615    6.5152 O.2     1  UNL1       -0.2464
     16 O          27.1298   76.5966    3.6571 O.2     1  UNL1       -0.2670
     17 N          23.5460   74.7765    4.2616 N.ar    1  UNL1       -0.2551
     18 N          25.4229   75.9762    5.0905 N.ar    1  UNL1       -0.2743
     19 C          24.1927   75.3674    5.3722 C.ar    1  UNL1        0.3323
     20 C          24.1353   74.8258    3.0032 C.ar    1  UNL1        0.0869
     21 C          25.3089   75.4096    2.7509 C.ar    1  UNL1        0.0795
     22 C          26.0488   76.0509    3.8558 C.ar    1  UNL1        0.2626
     23 H          25.9056   76.4080    5.8738 H       1  UNL1        0.1734
     24 O          21.2120   70.5872   -1.4165 O.3     1  UNL1       -0.2703
     25 P          21.2945   71.5297   -2.7269 P.3     1  UNL1        0.2208
     26 O          22.6580   71.0435   -3.4485 O.3     1  UNL1       -0.4371
     27 O          21.2401   73.0013   -2.4316 O.2     1  UNL1       -0.5170
     28 O          20.1120   70.9984   -3.6879 O.3     1  UNL1       -0.2858
     29 O          18.5587   72.4711   -4.6968 O.3     1  UNL1       -0.3226
     30 O          16.5409   68.8400   -4.8475 O.3     1  UNL1       -0.3794
     31 O          18.0692   69.5885   -2.4790 O.3     1  UNL1       -0.3775
     32 O          16.1711   71.3831   -5.8605 O.3     1  UNL1       -0.3792
     33 C          17.6416   69.7447   -4.8663 C.3     1  UNL1        0.1718
     34 C          17.7434   70.4903   -3.5314 C.3     1  UNL1        0.1968
     35 C          17.4426   70.7430   -6.0101 C.3     1  UNL1        0.1723
     36 C          18.8145   71.5858   -3.6014 C.3     1  UNL1        0.2706
     37 C          18.5373   71.8066   -5.9591 C.3     1  UNL1        0.1830
     38 H          16.5135   68.3933   -5.7108 H       1  UNL1        0.2105
     39 H          18.1320   70.1058   -1.6584 H       1  UNL1        0.2106
     40 H          16.2292   72.0176   -5.1262 H       1  UNL1        0.2106
     41 O          17.7942   72.3505   -8.1169 O.co2   1  UNL1       -0.5466
     42 O          18.5476   74.0640   -6.8157 O.co2   1  UNL1       -0.5466
     43 C          18.3087   72.8763   -6.9792 C.2     1  UNL1        0.0799
@<TRIPOS>UNITY_ATOM_ATTR
41 1
charge -1
@<TRIPOS>BOND
     1     1     4    1
     2     1    24    1
     3     1     2    1
     4     1     3    2
     5    25    28    1
     6    25    24    1
     7    25    26    1
     8    25    27    2
     9     6    11    1
    10     6    12    1
    11    29    36    1
    12    29    37    1
    13     7     9    1
    14     7    13    1
    15     8    10    1
    16     8    14    1
    17     4     5    1
    18    28    36    1
    19    30    33    1
    20    30    38    1
    21    31    34    1
    22    31    39    1
    23    32    35    1
    24    32    40    1
    25    41    43   ar
    26    15    19    2
    27    42    43   ar
    28    16    22    2
    29    17    12    1
    30    17    19   ar
    31    17    20   ar
    32    18    19   ar
    33    18    22   ar
    34    18    23    1
    35     9    10    1
    36     9    11    1
    37    10    12    1
    38    11     5    1
    39    33    34    1
    40    33    35    1
    41    34    36    1
    42    35    37    1
    43    37    43    1
    44    20    21   ar
    45    21    22   ar
@<TRIPOS>MOLECULE
UDP-glaA
 43 45 0 0 0
SMALL
GASTEIGER

@<TRIPOS>ATOM
      1 P          22.5580   72.8887   -4.4842 P.3     1  UNL1        0.2189
      2 O          22.4829   72.8415   -6.0996 O.3     1  UNL1       -0.4371
      3 O          23.9464   72.9275   -3.9160 O.2     1  UNL1       -0.5170
      4 O          21.6410   71.6419   -4.0149 O.3     1  UNL1       -0.3112
      5 C          20.4259   71.3979   -4.7028 C.3     1  UNL1        0.1811
      6 O          18.2296   72.0977   -4.0240 O.3     1  UNL1       -0.3308
      7 O          18.1136   69.5556   -2.4379 O.3     1  UNL1       -0.3794
      8 O          16.6425   68.9443   -4.6510 O.3     1  UNL1       -0.3779
      9 C          18.7142   69.8001   -3.7096 C.3     1  UNL1        0.1713
     10 C          17.6488   69.9276   -4.7778 C.3     1  UNL1        0.1895
     11 C          19.3108   71.2013   -3.6856 C.3     1  UNL1        0.1764
     12 C          17.1254   71.3332   -4.5356 C.3     1  UNL1        0.2383
     13 H          18.8298   69.5205   -1.7811 H       1  UNL1        0.2105
     14 H          17.0743   68.0745   -4.7089 H       1  UNL1        0.2106
     15 O          17.6891   70.4097   -7.1443 O.2     1  UNL1       -0.2464
     16 O          15.2274   73.7954   -9.0718 O.2     1  UNL1       -0.2670
     17 N          16.6445   71.9536   -5.7369 N.ar    1  UNL1       -0.2551
     18 N          16.4633   72.0966   -8.1024 N.ar    1  UNL1       -0.2743
     19 C          16.9860   71.4112   -6.9978 C.ar    1  UNL1        0.3323
     20 C          15.8434   73.0874   -5.6586 C.ar    1  UNL1        0.0869
     21 C          15.3524   73.7292   -6.7211 C.ar    1  UNL1        0.0795
     22 C          15.6627   73.2280   -8.0746 C.ar    1  UNL1        0.2626
     23 H          16.6964   71.7248   -9.0192 H       1  UNL1        0.1734
     24 O          21.6435   74.1707   -4.1162 O.3     1  UNL1       -0.2703
     25 P          21.4296   74.9545   -2.7189 P.3     1  UNL1        0.2208
     26 O          19.8204   75.0588   -2.5946 O.3     1  UNL1       -0.4371
     27 O          22.1447   76.2727   -2.6363 O.2     1  UNL1       -0.5170
     28 O          21.8588   73.8910   -1.5837 O.3     1  UNL1       -0.2858
     29 O          21.1196   71.8800   -0.5792 O.3     1  UNL1       -0.3226
     30 O          21.8000   74.3061    2.7269 O.3     1  UNL1       -0.3794
     31 O          20.5453   75.3894    0.3273 O.3     1  UNL1       -0.3775
     32 O          21.2031   71.6463    2.2803 O.3     1  UNL1       -0.3792
     33 C          21.9839   73.7648    1.4217 C.3     1  UNL1        0.1718
     34 C          20.7348   73.9986    0.5653 C.3     1  UNL1        0.1968
     35 C          22.2628   72.2642    1.5426 C.3     1  UNL1        0.1723
     36 C          20.8549   73.2723   -0.7802 C.3     1  UNL1        0.2706
     37 C          22.3218   71.6393    0.1505 C.3     1  UNL1        0.1830
     38 H          22.6121   74.1334    3.2332 H       1  UNL1        0.2105
     39 H          19.7512   75.4870   -0.2247 H       1  UNL1        0.2106
     40 H          20.4167   71.5995    1.7107 H       1  UNL1        0.2106
     41 O          23.7270   69.7760   -0.0887 O.co2   1  UNL1       -0.5466
     42 O          21.5684   69.3763    0.5261 O.co2   1  UNL1       -0.5466
     43 C          22.4634   70.1522    0.2237 C.2     1  UNL1        0.0799
@<TRIPOS>UNITY_ATOM_ATTR
41 1
charge -1
@<TRIPOS>BOND
     1     1     4    1
     2     1    24    1
     3     1     2    1
     4     1     3    2
     5    25    28    1
     6    25    24    1
     7    25    26    1
     8    25    27    2
     9     6    11    1
    10     6    12    1
    11    29    36    1
    12    29    37    1
    13     7     9    1
    14     7    13    1
    15     8    10    1
    16     8    14    1
    17     4     5    1
    18    28    36    1
    19    30    33    1
    20    30    38    1
    21    31    34    1
    22    31    39    1
    23    32    35    1
    24    32    40    1
    25    41    43   ar
    26    15    19    2
    27    42    43   ar
    28    16    22    2
    29    17    12    1
    30    17    19   ar
    31    17    20   ar
    32    18    19   ar
    33    18    22   ar
    34    18    23    1
    35     9    10    1
    36     9    11    1
    37    10    12    1
    38    11     5    1
    39    33    34    1
    40    33    35    1
    41    34    36    1
    42    35    37    1
    43    37    43    1
    44    20    21   ar
    45    21    22   ar
@<TRIPOS>MOLECULE
UDP-glaA
 43 45 0 0 0
SMALL
GASTEIGER

@<TRIPOS>ATOM
      1 P          22.2198   74.8445   -6.6886 P.3     1  UNL1        0.2189
      2 O          21.2589   75.9981   -6.0858 O.3     1  UNL1       -0.4371
      3 O          23.4682   75.3447   -7.3545 O.2     1  UNL1       -0.5170
      4 O          21.2333   73.9615   -7.6173 O.3     1  UNL1       -0.3112
      5 C          21.4878   72.5731   -7.7472 C.3     1  UNL1        0.1811
      6 O          19.9720   70.7367   -8.0701 O.3     1  UNL1       -0.3308
      7 O          18.5912   72.4746  -10.0861 O.3     1  UNL1       -0.3794
      8 O          16.9827   72.7090   -7.8967 O.3     1  UNL1       -0.3779
      9 C          19.2135   72.8396   -8.8544 C.3     1  UNL1        0.1713
     10 C          18.3490   72.4194   -7.6845 C.3     1  UNL1        0.1895
     11 C          20.4448   71.9619   -8.6721 C.3     1  UNL1        0.1764
     12 C          18.6247   70.9274   -7.6078 C.3     1  UNL1        0.2383
     13 H          19.1974   72.7275  -10.8032 H       1  UNL1        0.2105
     14 H          16.9061   73.6673   -8.0443 H       1  UNL1        0.2106
     15 O          16.2287   69.9678   -6.4618 O.2     1  UNL1       -0.2464
     16 O          18.3136   68.9951   -2.4686 O.2     1  UNL1       -0.2670
     17 N          18.5128   70.4172   -6.2712 N.ar    1  UNL1       -0.2551
     18 N          17.2684   69.4845   -4.4739 N.ar    1  UNL1       -0.2743
     19 C          17.2629   69.9605   -5.7917 C.ar    1  UNL1        0.3323
     20 C          19.6339   70.3731   -5.4500 C.ar    1  UNL1        0.0869
     21 C          19.6230   69.9159   -4.1959 C.ar    1  UNL1        0.0795
     22 C          18.3574   69.4212   -3.6186 C.ar    1  UNL1        0.2626
     23 H          16.3805   69.1515   -4.1078 H       1  UNL1        0.1734
     24 O          22.4754   73.8831   -5.4137 O.3     1  UNL1       -0.2703
     25 P          23.2403   74.1562   -4.0162 P.3     1  UNL1        0.2208
     26 O          22.9050   75.7080   -3.7067 O.3     1  UNL1       -0.4371
     27 O          24.7067   73.8323   -4.0430 O.2     1  UNL1       -0.5170
     28 O          22.3948   73.3289   -2.9187 O.3     1  UNL1       -0.2858
     29 O          22.6299   73.3604   -0.5643 O.3     1  UNL1       -0.3226
     30 O          21.2342   69.5051   -1.2489 O.3     1  UNL1       -0.3794
     31 O          23.2228   70.6970   -3.0184 O.3     1  UNL1       -0.3775
     32 O          21.6983   71.1083    0.9521 O.3     1  UNL1       -0.3792
     33 C          21.3908   70.9090   -1.4355 C.3     1  UNL1        0.1718
     34 C          22.8504   71.2457   -1.7586 C.3     1  UNL1        0.1968
     35 C          20.9576   71.6300   -0.1561 C.3     1  UNL1        0.1723
     36 C          23.0631   72.7643   -1.7915 C.3     1  UNL1        0.2706
     37 C          21.2512   73.1232   -0.2840 C.3     1  UNL1        0.1830
     38 H          20.2981   69.3389   -1.0447 H       1  UNL1        0.2105
     39 H          24.1484   70.9433   -3.1836 H       1  UNL1        0.2106
     40 H          22.6091   71.4445    0.9006 H       1  UNL1        0.2106
     41 O          19.6882   74.3051    1.0060 O.co2   1  UNL1       -0.5466
     42 O          21.7631   74.0093    1.9029 O.co2   1  UNL1       -0.5466
     43 C          20.9638   73.8487    0.9919 C.2     1  UNL1        0.0799
@<TRIPOS>UNITY_ATOM_ATTR
41 1
charge -1
@<TRIPOS>BOND
     1     1     4    1
     2     1    24    1
     3     1     2    1
     4     1     3    2
     5    25    28    1
     6    25    24    1
     7    25    26    1
     8    25    27    2
     9     6    11    1
    10     6    12    1
    11    29    36    1
    12    29    37    1
    13     7     9    1
    14     7    13    1
    15     8    10    1
    16     8    14    1
    17     4     5    1
    18    28    36    1
    19    30    33    1
    20    30    38    1
    21    31    34    1
    22    31    39    1
    23    32    35    1
    24    32    40    1
    25    41    43   ar
    26    15    19    2
    27    42    43   ar
    28    16    22    2
    29    17    12    1
    30    17    19   ar
    31    17    20   ar
    32    18    19   ar
    33    18    22   ar
    34    18    23    1
    35     9    10    1
    36     9    11    1
    37    10    12    1
    38    11     5    1
    39    33    34    1
    40    33    35    1
    41    34    36    1
    42    35    37    1
    43    37    43    1
    44    20    21   ar
    45    21    22   ar
@<TRIPOS>MOLECULE
UDP-glaA
 43 45 0 0 0
SMALL
GASTEIGER

@<TRIPOS>ATOM
      1 P          19.6498   69.9784   -2.5092 P.3     1  UNL1        0.2189
      2 O          20.4566   69.6464   -3.8716 O.3     1  UNL1       -0.4371
      3 O          18.2720   69.3891   -2.4298 O.2     1  UNL1       -0.5170
      4 O          19.7334   71.5891   -2.3895 O.3     1  UNL1       -0.3112
      5 C          19.4416   72.3696   -3.5362 C.3     1  UNL1        0.1811
      6 O          21.2650   72.5950   -5.0850 O.3     1  UNL1       -0.3308
      7 O          21.5263   75.4076   -4.0790 O.3     1  UNL1       -0.3794
      8 O          20.1965   75.7395   -6.4364 O.3     1  UNL1       -0.3779
      9 C          20.3488   74.6262   -4.2804 C.3     1  UNL1        0.1713
     10 C          20.0423   74.5097   -5.7586 C.3     1  UNL1        0.1895
     11 C          20.6718   73.1853   -3.9074 C.3     1  UNL1        0.1764
     12 C          21.0493   73.4648   -6.2085 C.3     1  UNL1        0.2383
     13 H          21.7048   75.4218   -3.1232 H       1  UNL1        0.2105
     14 H          19.5969   76.3813   -6.0182 H       1  UNL1        0.2106
     15 O          21.4486   74.1425   -8.9208 O.2     1  UNL1       -0.2464
     16 O          19.1786   70.4060  -10.3783 O.2     1  UNL1       -0.2670
     17 N          20.5741   72.6871   -7.3169 N.ar    1  UNL1       -0.2551
     18 N          20.3175   72.2817   -9.6447 N.ar    1  UNL1       -0.2743
     19 C          20.8272   73.1158   -8.6409 C.ar    1  UNL1        0.3323
     20 C          19.8653   71.5132   -7.0868 C.ar    1  UNL1        0.0869
     21 C          19.3863   70.7286   -8.0547 C.ar    1  UNL1        0.0795
     22 C          19.6065   71.1053   -9.4651 C.ar    1  UNL1        0.2626
     23 H          20.4870   72.5706  -10.6044 H       1  UNL1        0.1734
     24 O          20.6650   69.4755   -1.3552 O.3     1  UNL1       -0.2703
     25 P          21.9349   70.2032   -0.6694 P.3     1  UNL1        0.2208
     26 O          22.7162   70.8509   -1.9288 O.3     1  UNL1       -0.4371
     27 O          22.7768   69.2982    0.1838 O.2     1  UNL1       -0.5170
     28 O          21.3078   71.4660    0.1155 O.3     1  UNL1       -0.2858
     29 O          21.7509   73.7905    0.1143 O.3     1  UNL1       -0.3226
     30 O          21.0067   73.0477    4.1360 O.3     1  UNL1       -0.3794
     31 O          22.5784   71.1723    2.5491 O.3     1  UNL1       -0.3775
     32 O          21.3800   75.2737    2.5436 O.3     1  UNL1       -0.3792
     33 C          20.8927   72.9145    2.7219 C.3     1  UNL1        0.1718
     34 C          22.2327   72.4837    2.1160 C.3     1  UNL1        0.1968
     35 C          20.4587   74.2588    2.1312 C.3     1  UNL1        0.1723
     36 C          22.1677   72.5040    0.5838 C.3     1  UNL1        0.2706
     37 C          20.4685   74.1764    0.6064 C.3     1  UNL1        0.1830
     38 H          20.1382   73.3234    4.4756 H       1  UNL1        0.2105
     39 H          23.4260   70.9400    2.1338 H       1  UNL1        0.2106
     40 H          22.2076   75.1601    2.0462 H       1  UNL1        0.2106
     41 O          19.3659   76.2395    0.7844 O.co2   1  UNL1       -0.5466
     42 O          20.6076   75.8847   -1.0943 O.co2   1  UNL1       -0.5466
     43 C          20.1762   75.5050   -0.0153 C.2     1  UNL1        0.0799
@<TRIPOS>UNITY_ATOM_ATTR
41 1
charge -1
@<TRIPOS>BOND
     1     1     4    1
     2     1    24    1
     3     1     2    1
     4     1     3    2
     5    25    28    1
     6    25    24    1
     7    25    26    1
     8    25    27    2
     9     6    11    1
    10     6    12    1
    11    29    36    1
    12    29    37    1
    13     7     9    1
    14     7    13    1
    15     8    10    1
    16     8    14    1
    17     4     5    1
    18    28    36    1
    19    30    33    1
    20    30    38    1
    21    31    34    1
    22    31    39    1
    23    32    35    1
    24    32    40    1
    25    41    43   ar
    26    15    19    2
    27    42    43   ar
    28    16    22    2
    29    17    12    1
    30    17    19   ar
    31    17    20   ar
    32    18    19   ar
    33    18    22   ar
    34    18    23    1
    35     9    10    1
    36     9    11    1
    37    10    12    1
    38    11     5    1
    39    33    34    1
    40    33    35    1
    41    34    36    1
    42    35    37    1
    43    37    43    1
    44    20    21   ar
    45    21    22   ar
@<TRIPOS>MOLECULE
UDP-glaA
 43 45 0 0 0
SMALL
GASTEIGER

@<TRIPOS>ATOM
      1 P          22.4618   73.3872   -5.1541 P.3     1  UNL1        0.2189
      2 O          23.0008   74.9001   -5.3489 O.3     1  UNL1       -0.4371
      3 O          23.4289   72.4514   -4.4899 O.2     1  UNL1       -0.5170
      4 O          21.9689   72.9556   -6.6327 O.3     1  UNL1       -0.3112
      5 C          20.7929   73.5500   -7.1551 C.3     1  UNL1        0.1811
      6 O          20.0839   71.3073   -7.6467 O.3     1  UNL1       -0.3308
      7 O          18.5567   72.4921   -9.9391 O.3     1  UNL1       -0.3794
      8 O          16.6152   72.1144   -8.0619 O.3     1  UNL1       -0.3779
      9 C          18.7930   73.0289   -8.6377 C.3     1  UNL1        0.1713
     10 C          17.9392   72.3140   -7.6117 C.3     1  UNL1        0.1895
     11 C          20.2007   72.6308   -8.2139 C.3     1  UNL1        0.1764
     12 C          18.6955   71.0097   -7.4252 C.3     1  UNL1        0.2383
     13 H          19.1520   72.9525  -10.5549 H       1  UNL1        0.2105
     14 H          16.2390   72.9888   -8.2619 H       1  UNL1        0.2106
     15 O          16.3853   69.6632   -6.5169 O.2     1  UNL1       -0.2464
     16 O          18.2043   68.9787   -2.3383 O.2     1  UNL1       -0.2670
     17 N          18.5385   70.4690   -6.1052 N.ar    1  UNL1       -0.2551
     18 N          17.2924   69.3237   -4.4366 N.ar    1  UNL1       -0.2743
     19 C          17.3377   69.8116   -5.7492 C.ar    1  UNL1        0.3323
     20 C          19.5678   70.5928   -5.1785 C.ar    1  UNL1        0.0869
     21 C          19.5094   70.1217   -3.9309 C.ar    1  UNL1        0.0795
     22 C          18.2899   69.4229   -3.4790 C.ar    1  UNL1        0.2626
     23 H          16.4384   68.8479   -4.1583 H       1  UNL1        0.1734
     24 O          21.0717   73.5979   -4.3550 O.3     1  UNL1       -0.2703
     25 P          20.7825   74.0776   -2.8389 P.3     1  UNL1        0.2208
     26 O          19.1728   74.2312   -2.7989 O.3     1  UNL1       -0.4371
     27 O          21.5334   75.3123   -2.4296 O.2     1  UNL1       -0.5170
     28 O          21.0914   72.7785   -1.9329 O.3     1  UNL1       -0.2858
     29 O          22.1288   73.3496    0.1157 O.3     1  UNL1       -0.3226
     30 O          22.2913   69.1965    0.1852 O.3     1  UNL1       -0.3794
     31 O          22.8264   70.6592   -2.2806 O.3     1  UNL1       -0.3775
     32 O          22.8211   71.2538    1.9507 O.3     1  UNL1       -0.3792
     33 C          21.7797   70.4969   -0.0932 C.3     1  UNL1        0.1718
     34 C          22.7466   71.2695   -0.9968 C.3     1  UNL1        0.1968
     35 C          21.5856   71.2460    1.2279 C.3     1  UNL1        0.1723
     36 C          22.2908   72.7246   -1.1618 C.3     1  UNL1        0.2706
     37 C          21.1733   72.6888    0.9440 C.3     1  UNL1        0.1830
     38 H          21.6498   68.7458    0.7604 H       1  UNL1        0.2105
     39 H          23.4405   71.1867   -2.8186 H       1  UNL1        0.2106
     40 H          23.4272   71.8800    1.5197 H       1  UNL1        0.2106
     41 O          20.7004   72.7216    3.2416 O.co2   1  UNL1       -0.5466
     42 O          21.3610   74.6848    2.2896 O.co2   1  UNL1       -0.5466
     43 C          21.0982   73.4941    2.2021 C.2     1  UNL1        0.0799
@<TRIPOS>UNITY_ATOM_ATTR
41 1
charge -1
@<TRIPOS>BOND
     1     1     4    1
     2     1    24    1
     3     1     2    1
     4     1     3    2
     5    25    28    1
     6    25    24    1
     7    25    26    1
     8    25    27    2
     9     6    11    1
    10     6    12    1
    11    29    36    1
    12    29    37    1
    13     7     9    1
    14     7    13    1
    15     8    10    1
    16     8    14    1
    17     4     5    1
    18    28    36    1
    19    30    33    1
    20    30    38    1
    21    31    34    1
    22    31    39    1
    23    32    35    1
    24    32    40    1
    25    41    43   ar
    26    15    19    2
    27    42    43   ar
    28    16    22    2
    29    17    12    1
    30    17    19   ar
    31    17    20   ar
    32    18    19   ar
    33    18    22   ar
    34    18    23    1
    35     9    10    1
    36     9    11    1
    37    10    12    1
    38    11     5    1
    39    33    34    1
    40    33    35    1
    41    34    36    1
    42    35    37    1
    43    37    43    1
    44    20    21   ar
    45    21    22   ar
@<TRIPOS>MOLECULE
UDP-glaA
 43 45 0 0 0
SMALL
GASTEIGER

@<TRIPOS>ATOM
      1 P          18.5708   71.0920   -2.9840 P.3     1  UNL1        0.2189
      2 O          17.3337   70.1407   -3.4107 O.3     1  UNL1       -0.4371
      3 O          18.2081   72.2360   -2.0830 O.2     1  UNL1       -0.5170
      4 O          19.2553   71.4963   -4.3924 O.3     1  UNL1       -0.3112
      5 C          18.9214   70.7463   -5.5479 C.3     1  UNL1        0.1811
      6 O          18.5192   72.8493   -6.6388 O.3     1  UNL1       -0.3308
      7 O          16.4284   71.4089   -8.2343 O.3     1  UNL1       -0.3794
      8 O          18.5267   71.5275   -9.9718 O.3     1  UNL1       -0.3779
      9 C          17.6917   70.9370   -7.7662 C.3     1  UNL1        0.1713
     10 C          18.8134   71.5353   -8.5886 C.3     1  UNL1        0.1895
     11 C          17.9420   71.5478   -6.3936 C.3     1  UNL1        0.1764
     12 C          18.9071   72.9408   -8.0196 C.3     1  UNL1        0.2383
     13 H          15.7450   71.0312   -7.6547 H       1  UNL1        0.2105
     14 H          18.3737   70.6033  -10.2338 H       1  UNL1        0.2106
     15 O          21.2529   71.4750   -7.4501 O.2     1  UNL1       -0.2464
     16 O          23.9545   75.0991   -8.3475 O.2     1  UNL1       -0.2670
     17 N          20.2364   73.4760   -8.0968 N.ar    1  UNL1       -0.2551
     18 N          22.5966   73.2808   -7.8969 N.ar    1  UNL1       -0.2743
     19 C          21.3471   72.6560   -7.7894 C.ar    1  UNL1        0.3323
     20 C          20.4295   74.8004   -8.4738 C.ar    1  UNL1        0.0869
     21 C          21.6273   75.3813   -8.5721 C.ar    1  UNL1        0.0795
     22 C          22.8388   74.5945   -8.2673 C.ar    1  UNL1        0.2626
     23 H          23.4095   72.7105   -7.6800 H       1  UNL1        0.1734
     24 O          19.6305   70.0467   -2.3521 O.3     1  UNL1       -0.2703
     25 P          21.1461   70.2577   -1.8313 P.3     1  UNL1        0.2208
     26 O          22.0393   69.8751   -3.1243 O.3     1  UNL1       -0.4371
     27 O          21.4852   69.4807   -0.5916 O.2     1  UNL1       -0.5170
     28 O          21.3082   71.8562   -1.6814 O.3     1  UNL1       -0.2858
     29 O          22.9554   73.0803   -2.8593 O.3     1  UNL1       -0.3226
     30 O          22.0678   75.6314    0.3003 O.3     1  UNL1       -0.3794
     31 O          22.2930   72.7564    0.7356 O.3     1  UNL1       -0.3775
     32 O          23.5467   75.7635   -2.0290 O.3     1  UNL1       -0.3792
     33 C          21.8496   74.6555   -0.7147 C.3     1  UNL1        0.1718
     34 C          22.7100   73.4140   -0.4562 C.3     1  UNL1        0.1968
     35 C          22.2053   75.2658   -2.0732 C.3     1  UNL1        0.1723
     36 C          22.6129   72.4317   -1.6301 C.3     1  UNL1        0.2706
     37 C          22.1145   74.1937   -3.1570 C.3     1  UNL1        0.1830
     38 H          21.5064   76.3984    0.0953 H       1  UNL1        0.2105
     39 H          22.8583   71.9743    0.8523 H       1  UNL1        0.2106
     40 H          24.1575   75.0074   -2.0483 H       1  UNL1        0.2106
     41 O          21.5294   75.1499   -5.2179 O.co2   1  UNL1       -0.5466
     42 O          23.7429   74.7453   -4.8522 O.co2   1  UNL1       -0.5466
     43 C          22.5787   74.7130   -4.4806 C.2     1  UNL1        0.0799
@<TRIPOS>UNITY_ATOM_ATTR
41 1
charge -1
@<TRIPOS>BOND
     1     1     4    1
     2     1    24    1
     3     1     2    1
     4     1     3    2
     5    25    28    1
     6    25    24    1
     7    25    26    1
     8    25    27    2
     9     6    11    1
    10     6    12    1
    11    29    36    1
    12    29    37    1
    13     7     9    1
    14     7    13    1
    15     8    10    1
    16     8    14    1
    17     4     5    1
    18    28    36    1
    19    30    33    1
    20    30    38    1
    21    31    34    1
    22    31    39    1
    23    32    35    1
    24    32    40    1
    25    41    43   ar
    26    15    19    2
    27    42    43   ar
    28    16    22    2
    29    17    12    1
    30    17    19   ar
    31    17    20   ar
    32    18    19   ar
    33    18    22   ar
    34    18    23    1
    35     9    10    1
    36     9    11    1
    37    10    12    1
    38    11     5    1
    39    33    34    1
    40    33    35    1
    41    34    36    1
    42    35    37    1
    43    37    43    1
    44    20    21   ar
    45    21    22   ar
@<TRIPOS>MOLECULE
UDP-glaA
 43 45 0 0 0
SMALL
GASTEIGER

@<TRIPOS>ATOM
      1 P          22.7419   71.8076   -2.7305 P.3     1  UNL1        0.2189
      2 O          23.5328   70.4978   -3.2560 O.3     1  UNL1       -0.4371
      3 O          23.4285   73.1137   -3.0038 O.2     1  UNL1       -0.5170
      4 O          22.4416   71.4834   -1.1747 O.3     1  UNL1       -0.3112
      5 C          22.4506   72.5540   -0.2457 C.3     1  UNL1        0.1811
      6 O          21.0155   72.8535    1.6583 O.3     1  UNL1       -0.3308
      7 O          19.0682   74.1128   -0.2427 O.3     1  UNL1       -0.3794
      8 O          20.2100   76.2770    0.9608 O.3     1  UNL1       -0.3779
      9 C          20.4941   74.1792   -0.2347 C.3     1  UNL1        0.1713
     10 C          20.9712   75.0900    0.8768 C.3     1  UNL1        0.1895
     11 C          21.0249   72.8239    0.2139 C.3     1  UNL1        0.1764
     12 C          20.8102   74.2051    2.1012 C.3     1  UNL1        0.2383
     13 H          18.8110   73.4895   -0.9434 H       1  UNL1        0.2105
     14 H          20.2780   76.7297    0.1025 H       1  UNL1        0.2106
     15 O          21.9303   72.2977    3.8568 O.2     1  UNL1       -0.2464
     16 O          24.4649   75.4924    6.0035 O.2     1  UNL1       -0.2670
     17 N          21.7653   74.5105    3.1277 N.ar    1  UNL1       -0.2551
     18 N          23.1913   73.8898    4.9250 N.ar    1  UNL1       -0.2743
     19 C          22.2655   73.4793    3.9567 C.ar    1  UNL1        0.3323
     20 C          22.1971   75.8202    3.3053 C.ar    1  UNL1        0.0869
     21 C          23.0808   76.1955    4.2327 C.ar    1  UNL1        0.0795
     22 C          23.6509   75.1799    5.1400 C.ar    1  UNL1        0.2626
     23 H          23.5639   73.1654    5.5328 H       1  UNL1        0.1734
     24 O          21.2875   71.6539   -3.4206 O.3     1  UNL1       -0.2703
     25 P          20.1666   70.4972   -3.2853 P.3     1  UNL1        0.2208
     26 O          19.0556   71.1682   -2.3202 O.3     1  UNL1       -0.4371
     27 O          20.6971   69.1794   -2.7975 O.2     1  UNL1       -0.5170
     28 O          19.4640   70.4368   -4.7367 O.3     1  UNL1       -0.2858
     29 O          19.0246   72.1777   -6.2780 O.3     1  UNL1       -0.3226
     30 O          15.8474   69.5861   -6.9623 O.3     1  UNL1       -0.3794
     31 O          16.7656   70.1197   -4.2460 O.3     1  UNL1       -0.3775
     32 O          16.8672   71.8645   -8.1451 O.3     1  UNL1       -0.3792
     33 C          17.1718   70.0005   -6.6392 C.3     1  UNL1        0.1718
     34 C          17.1658   70.8777   -5.3827 C.3     1  UNL1        0.1968
     35 C          17.7482   70.7835   -7.8220 C.3     1  UNL1        0.1723
     36 C          18.5579   71.4682   -5.1258 C.3     1  UNL1        0.2706
     37 C          19.1114   71.3575   -7.4422 C.3     1  UNL1        0.1830
     38 H          15.8989   69.0369   -7.7631 H       1  UNL1        0.2105
     39 H          16.7861   70.7126   -3.4760 H       1  UNL1        0.2106
     40 H          16.9572   72.5509   -7.4625 H       1  UNL1        0.2106
     41 O          19.0791   73.4641   -8.4742 O.co2   1  UNL1       -0.5466
     42 O          20.5029   71.9069   -9.3374 O.co2   1  UNL1       -0.5466
     43 C          19.6545   72.2383   -8.5220 C.2     1  UNL1        0.0799
@<TRIPOS>UNITY_ATOM_ATTR
41 1
charge -1
@<TRIPOS>BOND
     1     1     4    1
     2     1    24    1
     3     1     2    1
     4     1     3    2
     5    25    28    1
     6    25    24    1
     7    25    26    1
     8    25    27    2
     9     6    11    1
    10     6    12    1
    11    29    36    1
    12    29    37    1
    13     7     9    1
    14     7    13    1
    15     8    10    1
    16     8    14    1
    17     4     5    1
    18    28    36    1
    19    30    33    1
    20    30    38    1
    21    31    34    1
    22    31    39    1
    23    32    35    1
    24    32    40    1
    25    41    43   ar
    26    15    19    2
    27    42    43   ar
    28    16    22    2
    29    17    12    1
    30    17    19   ar
    31    17    20   ar
    32    18    19   ar
    33    18    22   ar
    34    18    23    1
    35     9    10    1
    36     9    11    1
    37    10    12    1
    38    11     5    1
    39    33    34    1
    40    33    35    1
    41    34    36    1
    42    35    37    1
    43    37    43    1
    44    20    21   ar
    45    21    22   ar
@<TRIPOS>MOLECULE
UDP-glaA
 43 45 0 0 0
SMALL
GASTEIGER

@<TRIPOS>ATOM
      1 P          21.4438   71.7019   -3.6401 P.3     1  UNL1        0.2189
      2 O          21.7399   72.1495   -5.1663 O.3     1  UNL1       -0.4371
      3 O          22.4308   70.7300   -3.0627 O.2     1  UNL1       -0.5170
      4 O          19.9047   71.2059   -3.6710 O.3     1  UNL1       -0.3112
      5 C          19.4388   70.5142   -4.8172 C.3     1  UNL1        0.1811
      6 O          18.5887   72.4910   -5.8868 O.3     1  UNL1       -0.3308
      7 O          16.1548   70.8652   -6.5384 O.3     1  UNL1       -0.3794
      8 O          17.5331   70.8430   -8.8911 O.3     1  UNL1       -0.3779
      9 C          17.5234   70.4626   -6.4899 C.3     1  UNL1        0.1713
     10 C          18.2701   70.9936   -7.6954 C.3     1  UNL1        0.1895
     11 C          18.1930   71.2114   -5.3451 C.3     1  UNL1        0.1764
     12 C          18.4817   72.4502   -7.3193 C.3     1  UNL1        0.2383
     13 H          15.7272   70.5365   -5.7292 H       1  UNL1        0.2105
     14 H          17.3460   69.8950   -9.0022 H       1  UNL1        0.2106
     15 O          20.5494   70.9062   -8.4666 O.2     1  UNL1       -0.2464
     16 O          23.0297   74.6537   -9.4881 O.2     1  UNL1       -0.2670
     17 N          19.6785   72.9962   -7.8929 N.ar    1  UNL1       -0.2551
     18 N          21.7833   72.7733   -8.9740 N.ar    1  UNL1       -0.2743
     19 C          20.6557   72.1337   -8.4424 C.ar    1  UNL1        0.3323
     20 C          19.8750   74.3726   -7.9069 C.ar    1  UNL1        0.0869
     21 C          20.9554   74.9671   -8.4180 C.ar    1  UNL1        0.0795
     22 C          22.0236   74.1381   -9.0105 C.ar    1  UNL1        0.2626
     23 H          22.4993   72.1729   -9.3740 H       1  UNL1        0.1734
     24 O          21.3543   73.1150   -2.8589 O.3     1  UNL1       -0.2703
     25 P          22.5134   74.1140   -2.3384 P.3     1  UNL1        0.2208
     26 O          21.9407   75.5777   -2.7199 O.3     1  UNL1       -0.4371
     27 O          23.8771   73.8177   -2.8938 O.2     1  UNL1       -0.5170
     28 O          22.4199   74.0456   -0.7289 O.3     1  UNL1       -0.2858
     29 O          21.4082   72.0734    0.0997 O.3     1  UNL1       -0.3226
     30 O          21.6820   74.4161    3.5226 O.3     1  UNL1       -0.3794
     31 O          20.9030   75.6015    0.9743 O.3     1  UNL1       -0.3775
     32 O          21.0092   71.8036    2.9293 O.3     1  UNL1       -0.3792
     33 C          22.0443   73.8789    2.2535 C.3     1  UNL1        0.1718
     34 C          20.9681   74.1991    1.2107 C.3     1  UNL1        0.1968
     35 C          22.2101   72.3626    2.3867 C.3     1  UNL1        0.1723
     36 C          21.2632   73.4816   -0.1124 C.3     1  UNL1        0.2706
     37 C          22.4585   71.7506    1.0098 C.3     1  UNL1        0.1830
     38 H          22.3887   74.1878    4.1503 H       1  UNL1        0.2105
     39 H          20.2170   75.7543    0.3028 H       1  UNL1        0.2106
     40 H          20.3251   71.8119    2.2386 H       1  UNL1        0.2106
     41 O          23.4697   69.8396    1.9205 O.co2   1  UNL1       -0.5466
     42 O          21.7564   69.5084    0.4536 O.co2   1  UNL1       -0.5466
     43 C          22.4977   70.2568    1.0739 C.2     1  UNL1        0.0799
@<TRIPOS>UNITY_ATOM_ATTR
41 1
charge -1
@<TRIPOS>BOND
     1     1     4    1
     2     1    24    1
     3     1     2    1
     4     1     3    2
     5    25    28    1
     6    25    24    1
     7    25    26    1
     8    25    27    2
     9     6    11    1
    10     6    12    1
    11    29    36    1
    12    29    37    1
    13     7     9    1
    14     7    13    1
    15     8    10    1
    16     8    14    1
    17     4     5    1
    18    28    36    1
    19    30    33    1
    20    30    38    1
    21    31    34    1
    22    31    39    1
    23    32    35    1
    24    32    40    1
    25    41    43   ar
    26    15    19    2
    27    42    43   ar
    28    16    22    2
    29    17    12    1
    30    17    19   ar
    31    17    20   ar
    32    18    19   ar
    33    18    22   ar
    34    18    23    1
    35     9    10    1
    36     9    11    1
    37    10    12    1
    38    11     5    1
    39    33    34    1
    40    33    35    1
    41    34    36    1
    42    35    37    1
    43    37    43    1
    44    20    21   ar
    45    21    22   ar
