@<TRIPOS>MOLECULE
GDU
 43 45 0 0 0
SMALL
GASTEIGER

@<TRIPOS>ATOM
      1 P          22.1320   70.8073   -2.5451 P.3     1  UNL1        0.2189
      2 O          21.5313   69.5820   -1.9729 O.2     1  UNL1       -0.5170
      3 O          23.5342   70.4403   -3.2467 O.3     1  UNL1       -0.4371
      4 O          21.1331   71.4351   -3.6382 O.3     1  UNL1       -0.3112
      5 C          20.1269   72.1486   -2.9178 C.3     1  UNL1        0.1811
      6 C          18.0154   71.2726   -5.6930 C.3     1  UNL1        0.2383
      7 C          18.0516   69.9965   -4.8136 C.3     1  UNL1        0.1895
      8 O          16.8286   69.2651   -4.9258 O.3     1  UNL1       -0.3779
      9 C          18.2137   70.5881   -3.3892 C.3     1  UNL1        0.1713
     10 C          18.7825   71.9984   -3.6321 C.3     1  UNL1        0.1764
     11 O          18.9632   72.1515   -5.0506 O.3     1  UNL1       -0.3308
     12 O          16.9476   70.6586   -2.7304 O.3     1  UNL1       -0.3794
     13 H          16.9160   68.4870   -4.3576 H       1  UNL1        0.2106
     14 H          16.6172   69.7526   -2.6610 H       1  UNL1        0.2105
     15 N          18.4375   70.9706   -7.0617 N.ar    1  UNL1       -0.2551
     16 C          17.5157   70.6648   -7.9917 C.ar    1  UNL1        0.3323
     17 N          17.8770   70.3866   -9.2582 N.ar    1  UNL1       -0.2743
     18 C          19.1762   70.4007   -9.6134 C.ar    1  UNL1        0.2626
     19 C          20.1587   70.7155   -8.6429 C.ar    1  UNL1        0.0795
     20 C          19.7685   70.9947   -7.3810 C.ar    1  UNL1        0.0869
     21 O          16.3399   70.6486   -7.6864 O.2     1  UNL1       -0.2464
     22 O          19.5045   70.1444  -10.7583 O.2     1  UNL1       -0.2670
     23 H          17.1980   70.1721   -9.9175 H       1  UNL1        0.1734
     24 O          22.3856   71.8786   -1.3701 O.3     1  UNL1       -0.2703
     25 P          22.3609   71.0638    0.0175 P.3     1  UNL1        0.2208
     26 O          21.0486   70.3991    0.1757 O.2     1  UNL1       -0.5170
     27 O          23.5270   69.9528    0.0080 O.3     1  UNL1       -0.4371
     28 O          22.5999   72.0802    1.2422 O.3     1  UNL1       -0.2858
     29 C          21.3133   72.5438    1.6538 C.3     1  UNL1        0.2704
     30 C          21.1216   73.9896    1.1932 C.3     1  UNL1        0.1967
     31 C          22.2286   74.8571    1.8001 C.3     1  UNL1        0.1715
     32 C          22.2349   74.6518    3.3191 C.3     1  UNL1        0.1694
     33 C          22.3442   73.1547    3.6186 C.3     1  UNL1        0.1761
     34 O          21.1908   74.0509   -0.2325 O.3     1  UNL1       -0.3775
     35 O          21.9800   76.2321    1.5000 O.3     1  UNL1       -0.3794
     36 O          21.0253   75.1684    3.8760 O.3     1  UNL1       -0.3794
     37 O          21.2161   72.4713    3.0744 O.3     1  UNL1       -0.3258
     38 H          20.4825   73.4862   -0.5707 H       1  UNL1        0.2106
     39 H          21.9729   76.3117    0.5377 H       1  UNL1        0.2105
     40 H          20.9964   76.1092    3.6584 H       1  UNL1        0.2105
     41 C          22.3858   72.9411    5.1334 C.3     1  UNL1        0.1693
     42 O          21.0647   73.0522    5.6657 O.3     1  UNL1       -0.3794
     43 H          21.1346   72.9108    6.6199 H       1  UNL1        0.2105
@<TRIPOS>BOND
     1    15    16   ar
     2    15    20   ar
     3    15     6    1
     4    16    17   ar
     5    16    21    2
     6    17    18   ar
     7    17    23    1
     8    18    19   ar
     9    18    22    2
    10    19    20   ar
    11     6     7    1
    12     6    11    1
    13     7     8    1
    14     7     9    1
    15     8    13    1
    16     9    10    1
    17     9    12    1
    18    10    11    1
    19    10     5    1
    20    12    14    1
    21     5     4    1
    22     4     1    1
    23     1     2    2
    24     1     3    1
    25     1    24    1
    26    24    25    1
    27    25    26    2
    28    25    27    1
    29    25    28    1
    30    28    29    1
    31    29    30    1
    32    29    37    1
    33    30    31    1
    34    30    34    1
    35    31    32    1
    36    31    35    1
    37    32    33    1
    38    32    36    1
    39    33    41    1
    40    33    37    1
    41    41    42    1
    42    34    38    1
    43    35    39    1
    44    36    40    1
    45    42    43    1
@<TRIPOS>MOLECULE
GDU
 43 45 0 0 0
SMALL
GASTEIGER

@<TRIPOS>ATOM
      1 P          22.1077   70.9494   -2.5216 P.3     1  UNL1        0.2189
      2 O          21.5085   69.6277   -2.2327 O.2     1  UNL1       -0.5170
      3 O          23.5422   70.7460   -3.2243 O.3     1  UNL1       -0.4371
      4 O          21.1398   71.7741   -3.5065 O.3     1  UNL1       -0.3112
      5 C          20.1393   72.3831   -2.6889 C.3     1  UNL1        0.1811
      6 C          17.9138   71.4018   -5.3368 C.3     1  UNL1        0.2383
      7 C          18.0187   70.1477   -4.4318 C.3     1  UNL1        0.1895
      8 O          16.8069   69.3904   -4.4674 O.3     1  UNL1       -0.3779
      9 C          18.2377   70.7754   -3.0307 C.3     1  UNL1        0.1713
     10 C          18.7651   72.1904   -3.3328 C.3     1  UNL1        0.1764
     11 O          18.8736   72.3136   -4.7615 O.3     1  UNL1       -0.3308
     12 O          17.0039   70.8370   -2.3124 O.3     1  UNL1       -0.3794
     13 H          16.9375   68.6276   -3.8869 H       1  UNL1        0.2106
     14 H          16.6957   69.9267   -2.2065 H       1  UNL1        0.2105
     15 N          18.2750   71.0760   -6.7174 N.ar    1  UNL1       -0.2551
     16 C          17.3143   70.7416   -7.5969 C.ar    1  UNL1        0.3323
     17 N          17.6193   70.4411   -8.8731 N.ar    1  UNL1       -0.2743
     18 C          18.9003   70.4612   -9.2889 C.ar    1  UNL1        0.2626
     19 C          19.9233   70.8060   -8.3720 C.ar    1  UNL1        0.0795
     20 C          19.5893   71.1071   -7.0991 C.ar    1  UNL1        0.0869
     21 O          16.1543   70.7196   -7.2366 O.2     1  UNL1       -0.2464
     22 O          19.1778   70.1846  -10.4426 O.2     1  UNL1       -0.2670
     23 H          16.9127   70.2061   -9.4954 H       1  UNL1        0.1734
     24 O          22.2963   71.7644   -1.1459 O.3     1  UNL1       -0.2703
     25 P          21.8971   70.7624    0.0485 P.3     1  UNL1        0.2208
     26 O          20.9327   69.7581   -0.4519 O.2     1  UNL1       -0.5170
     27 O          23.2187   70.0152    0.5862 O.3     1  UNL1       -0.4371
     28 O          21.2281   71.5979    1.2504 O.3     1  UNL1       -0.2858
     29 C          22.2395   72.4638    1.7671 C.3     1  UNL1        0.2704
     30 C          22.0652   72.6043    3.2801 C.3     1  UNL1        0.1967
     31 C          20.6707   73.1674    3.5711 C.3     1  UNL1        0.1715
     32 C          20.4880   74.4618    2.7705 C.3     1  UNL1        0.1694
     33 C          20.7803   74.1796    1.2947 C.3     1  UNL1        0.1761
     34 O          22.2047   71.3241    3.8989 O.3     1  UNL1       -0.3775
     35 O          20.5459   73.4425    4.9680 O.3     1  UNL1       -0.3794
     36 O          21.3885   75.4570    3.2591 O.3     1  UNL1       -0.3794
     37 O          22.1305   73.7426    1.1464 O.3     1  UNL1       -0.3258
     38 H          23.0920   71.0055    3.6839 H       1  UNL1        0.2106
     39 H          20.6795   72.6058    5.4310 H       1  UNL1        0.2105
     40 H          21.1719   75.5975    4.1901 H       1  UNL1        0.2105
     41 C          20.5674   75.4580    0.4809 C.3     1  UNL1        0.1693
     42 O          19.6499   76.3113    1.1673 O.3     1  UNL1       -0.3794
     43 H          19.5440   77.1038    0.6231 H       1  UNL1        0.2105
@<TRIPOS>BOND
     1    15    16   ar
     2    15    20   ar
     3    15     6    1
     4    16    17   ar
     5    16    21    2
     6    17    18   ar
     7    17    23    1
     8    18    19   ar
     9    18    22    2
    10    19    20   ar
    11     6     7    1
    12     6    11    1
    13     7     8    1
    14     7     9    1
    15     8    13    1
    16     9    10    1
    17     9    12    1
    18    10    11    1
    19    10     5    1
    20    12    14    1
    21     5     4    1
    22     4     1    1
    23     1     2    2
    24     1     3    1
    25     1    24    1
    26    24    25    1
    27    25    26    2
    28    25    27    1
    29    25    28    1
    30    28    29    1
    31    29    30    1
    32    29    37    1
    33    30    31    1
    34    30    34    1
    35    31    32    1
    36    31    35    1
    37    32    33    1
    38    32    36    1
    39    33    41    1
    40    33    37    1
    41    41    42    1
    42    34    38    1
    43    35    39    1
    44    36    40    1
    45    42    43    1
@<TRIPOS>MOLECULE
GDU
 43 45 0 0 0
SMALL
GASTEIGER

@<TRIPOS>ATOM
      1 P          22.5408   71.6975   -2.5158 P.3     1  UNL1        0.2189
      2 O          22.0266   71.1527   -1.2397 O.2     1  UNL1       -0.5170
      3 O          23.5078   70.6138   -3.2111 O.3     1  UNL1       -0.4371
      4 O          21.3081   72.0238   -3.4960 O.3     1  UNL1       -0.3112
      5 C          20.2362   72.4863   -2.6729 C.3     1  UNL1        0.1811
      6 C          18.1119   71.0355   -5.1849 C.3     1  UNL1        0.2383
      7 C          18.6349   69.8244   -4.3707 C.3     1  UNL1        0.1895
      8 O          17.6724   68.7677   -4.3534 O.3     1  UNL1       -0.3779
      9 C          18.8108   70.4355   -2.9562 C.3     1  UNL1        0.1713
     10 C          18.9087   71.9508   -3.2126 C.3     1  UNL1        0.1764
     11 O          18.8430   72.1520   -4.6351 O.3     1  UNL1       -0.3308
     12 O          17.6802   70.1320   -2.1367 O.3     1  UNL1       -0.3794
     13 H          18.0575   68.0483   -3.8338 H       1  UNL1        0.2106
     14 H          17.6386   69.1690   -2.0623 H       1  UNL1        0.2105
     15 N          18.4134   70.8720   -6.6079 N.ar    1  UNL1       -0.2551
     16 C          17.4142   70.6498   -7.4800 C.ar    1  UNL1        0.3323
     17 N          17.6639   70.4994   -8.7942 N.ar    1  UNL1       -0.2743
     18 C          18.9272   70.5598   -9.2575 C.ar    1  UNL1        0.2626
     19 C          19.9904   70.7875   -8.3497 C.ar    1  UNL1        0.0795
     20 C          19.7115   70.9390   -7.0375 C.ar    1  UNL1        0.0869
     21 O          16.2694   70.5933   -7.0770 O.2     1  UNL1       -0.2464
     22 O          19.1547   70.4190  -10.4461 O.2     1  UNL1       -0.2670
     23 H          16.9302   70.3440   -9.4099 H       1  UNL1        0.1734
     24 O          23.3700   73.0471   -2.2267 O.3     1  UNL1       -0.2703
     25 P          23.6705   73.7252   -3.6549 P.3     1  UNL1        0.2208
     26 O          23.4911   72.7198   -4.7255 O.2     1  UNL1       -0.5170
     27 O          22.6512   74.9493   -3.8927 O.3     1  UNL1       -0.4371
     28 O          25.1828   74.2749   -3.6816 O.3     1  UNL1       -0.2858
     29 C          25.1174   75.6813   -3.4417 C.3     1  UNL1        0.2704
     30 C          25.7070   76.4298   -4.6382 C.3     1  UNL1        0.1967
     31 C          27.1580   75.9826   -4.8404 C.3     1  UNL1        0.1715
     32 C          27.9152   76.1638   -3.5201 C.3     1  UNL1        0.1694
     33 C          27.1586   75.4332   -2.4080 C.3     1  UNL1        0.1761
     34 O          24.9455   76.1340   -5.8103 O.3     1  UNL1       -0.3775
     35 O          27.7678   76.7776   -5.8595 O.3     1  UNL1       -0.3794
     36 O          28.0063   77.5547   -3.2085 O.3     1  UNL1       -0.3794
     37 O          25.8552   75.9953   -2.2629 O.3     1  UNL1       -0.3258
     38 H          24.0402   76.4250   -5.6357 H       1  UNL1        0.2106
     39 H          27.2535   76.6422   -6.6654 H       1  UNL1        0.2105
     40 H          28.4835   77.9739   -3.9365 H       1  UNL1        0.2105
     41 C          27.9247   75.5791   -1.0913 C.3     1  UNL1        0.1693
     42 O          29.3073   75.2945   -1.3115 O.3     1  UNL1       -0.3794
     43 H          29.7535   75.3981   -0.4598 H       1  UNL1        0.2105
@<TRIPOS>BOND
     1    15    16   ar
     2    15    20   ar
     3    15     6    1
     4    16    17   ar
     5    16    21    2
     6    17    18   ar
     7    17    23    1
     8    18    19   ar
     9    18    22    2
    10    19    20   ar
    11     6     7    1
    12     6    11    1
    13     7     8    1
    14     7     9    1
    15     8    13    1
    16     9    10    1
    17     9    12    1
    18    10    11    1
    19    10     5    1
    20    12    14    1
    21     5     4    1
    22     4     1    1
    23     1     2    2
    24     1     3    1
    25     1    24    1
    26    24    25    1
    27    25    26    2
    28    25    27    1
    29    25    28    1
    30    28    29    1
    31    29    30    1
    32    29    37    1
    33    30    31    1
    34    30    34    1
    35    31    32    1
    36    31    35    1
    37    32    33    1
    38    32    36    1
    39    33    41    1
    40    33    37    1
    41    41    42    1
    42    34    38    1
    43    35    39    1
    44    36    40    1
    45    42    43    1
@<TRIPOS>MOLECULE
GDU
 43 45 0 0 0
SMALL
GASTEIGER

@<TRIPOS>ATOM
      1 P          21.8410   70.8632   -0.7026 P.3     1  UNL1        0.2189
      2 O          21.5201   69.8134    0.2896 O.2     1  UNL1       -0.5170
      3 O          22.5436   70.1913   -1.9864 O.3     1  UNL1       -0.4371
      4 O          20.4877   71.6037   -1.1577 O.3     1  UNL1       -0.3112
      5 C          20.5637   71.7707   -2.5744 C.3     1  UNL1        0.1811
      6 C          18.1280   71.2773   -5.1727 C.3     1  UNL1        0.2383
      7 C          18.1065   69.9555   -4.3631 C.3     1  UNL1        0.1895
      8 O          16.8070   69.3609   -4.3922 O.3     1  UNL1       -0.3779
      9 C          18.4593   70.4441   -2.9341 C.3     1  UNL1        0.1713
     10 C          19.1519   71.8004   -3.1626 C.3     1  UNL1        0.1764
     11 O          19.2190   72.0159   -4.5829 O.3     1  UNL1       -0.3308
     12 O          17.2729   70.6057   -2.1542 O.3     1  UNL1       -0.3794
     13 H          16.8613   68.5464   -3.8731 H       1  UNL1        0.2106
     14 H          16.8548   69.7358   -2.0968 H       1  UNL1        0.2105
     15 N          18.3898   71.0132   -6.5885 N.ar    1  UNL1       -0.2551
     16 C          17.3603   70.8355   -7.4352 C.ar    1  UNL1        0.3323
     17 N          17.5735   70.5949   -8.7423 N.ar    1  UNL1       -0.2743
     18 C          18.8292   70.5181   -9.2236 C.ar    1  UNL1        0.2626
     19 C          19.9235   70.6975   -8.3423 C.ar    1  UNL1        0.0795
     20 C          19.6813   70.9418   -7.0369 C.ar    1  UNL1        0.0869
     21 O          16.2220   70.9024   -7.0158 O.2     1  UNL1       -0.2464
     22 O          19.0233   70.2956  -10.4056 O.2     1  UNL1       -0.2670
     23 H          16.8186   70.4734   -9.3399 H       1  UNL1        0.1734
     24 O          22.8450   71.9351   -0.0427 O.3     1  UNL1       -0.2703
     25 P          22.0377   72.6606    1.1455 P.3     1  UNL1        0.2208
     26 O          21.2631   73.7945    0.5947 O.2     1  UNL1       -0.5170
     27 O          21.0313   71.6069    1.8317 O.3     1  UNL1       -0.4371
     28 O          23.0767   73.2043    2.2477 O.3     1  UNL1       -0.2858
     29 C          22.7564   74.5768    2.4786 C.3     1  UNL1        0.2704
     30 C          24.0377   75.3545    2.7831 C.3     1  UNL1        0.1967
     31 C          24.7119   74.7419    4.0147 C.3     1  UNL1        0.1715
     32 C          23.6919   74.6920    5.1578 C.3     1  UNL1        0.1694
     33 C          22.4366   73.9623    4.6732 C.3     1  UNL1        0.1761
     34 O          24.9220   75.2774    1.6636 O.3     1  UNL1       -0.3775
     35 O          25.8293   75.5454    4.3998 O.3     1  UNL1       -0.3794
     36 O          23.3540   76.0217    5.5551 O.3     1  UNL1       -0.3794
     37 O          21.8574   74.6743    3.5808 O.3     1  UNL1       -0.3258
     38 H          24.4548   75.6666    0.9118 H       1  UNL1        0.2106
     39 H          26.4367   75.5582    3.6493 H       1  UNL1        0.2105
     40 H          24.1730   76.4435    5.8460 H       1  UNL1        0.2105
     41 C          21.4246   73.8767    5.8180 C.3     1  UNL1        0.1693
     42 O          22.1138   73.9413    7.0677 O.3     1  UNL1       -0.3794
     43 H          21.4420   73.8850    7.7611 H       1  UNL1        0.2105
@<TRIPOS>BOND
     1    15    16   ar
     2    15    20   ar
     3    15     6    1
     4    16    17   ar
     5    16    21    2
     6    17    18   ar
     7    17    23    1
     8    18    19   ar
     9    18    22    2
    10    19    20   ar
    11     6     7    1
    12     6    11    1
    13     7     8    1
    14     7     9    1
    15     8    13    1
    16     9    10    1
    17     9    12    1
    18    10    11    1
    19    10     5    1
    20    12    14    1
    21     5     4    1
    22     4     1    1
    23     1     2    2
    24     1     3    1
    25     1    24    1
    26    24    25    1
    27    25    26    2
    28    25    27    1
    29    25    28    1
    30    28    29    1
    31    29    30    1
    32    29    37    1
    33    30    31    1
    34    30    34    1
    35    31    32    1
    36    31    35    1
    37    32    33    1
    38    32    36    1
    39    33    41    1
    40    33    37    1
    41    41    42    1
    42    34    38    1
    43    35    39    1
    44    36    40    1
    45    42    43    1
@<TRIPOS>MOLECULE
GDU
 43 45 0 0 0
SMALL
GASTEIGER

@<TRIPOS>ATOM
      1 P          23.1481   74.3913   -3.9444 P.3     1  UNL1        0.2189
      2 O          23.8723   75.3702   -4.7852 O.2     1  UNL1       -0.5170
      3 O          23.9032   72.9703   -4.0043 O.3     1  UNL1       -0.4371
      4 O          23.1087   74.9144   -2.4240 O.3     1  UNL1       -0.3112
      5 C          22.1608   74.1009   -1.7310 C.3     1  UNL1        0.1811
      6 C          22.9859   72.3414    1.2940 C.3     1  UNL1        0.2383
      7 C          21.8381   71.5127    0.6626 C.3     1  UNL1        0.1895
      8 O          21.9700   70.1273    0.9891 O.3     1  UNL1       -0.3779
      9 C          22.0640   71.7475   -0.8537 C.3     1  UNL1        0.1713
     10 C          22.8987   73.0403   -0.9120 C.3     1  UNL1        0.1764
     11 O          23.0740   73.5010    0.4390 O.3     1  UNL1       -0.3308
     12 O          22.7828   70.6536   -1.4270 O.3     1  UNL1       -0.3794
     13 H          21.2287   69.6698    0.5684 H       1  UNL1        0.2106
     14 H          22.2359   69.8654   -1.3070 H       1  UNL1        0.2105
     15 N          22.6484   72.7345    2.6631 N.ar    1  UNL1       -0.2551
     16 C          21.4140   72.4963    3.1402 C.ar    1  UNL1        0.3323
     17 N          21.0791   72.8445    4.3966 N.ar    1  UNL1       -0.2743
     18 C          21.9777   73.4496    5.1970 C.ar    1  UNL1        0.2626
     19 C          23.2801   73.7120    4.7060 C.ar    1  UNL1        0.0795
     20 C          23.5909   73.3484    3.4435 C.ar    1  UNL1        0.0869
     21 O          20.5928   71.9509    2.4302 O.2     1  UNL1       -0.2464
     22 O          21.6740   73.7694    6.3327 O.2     1  UNL1       -0.2670
     23 H          20.1848   72.6611    4.7259 H       1  UNL1        0.1734
     24 O          21.6443   74.2218   -4.4942 O.3     1  UNL1       -0.2703
     25 P          21.6141   72.8657   -5.3603 P.3     1  UNL1        0.2208
     26 O          22.8023   72.8163   -6.2404 O.2     1  UNL1       -0.5170
     27 O          21.6276   71.5960   -4.3694 O.3     1  UNL1       -0.4371
     28 O          20.2786   72.8304   -6.2576 O.3     1  UNL1       -0.2858
     29 C          20.4296   71.7543   -7.1843 C.3     1  UNL1        0.2704
     30 C          20.1209   72.2520   -8.5972 C.3     1  UNL1        0.1967
     31 C          18.6904   72.7987   -8.6318 C.3     1  UNL1        0.1715
     32 C          17.7407   71.7205   -8.0980 C.3     1  UNL1        0.1694
     33 C          18.2293   71.2642   -6.7210 C.3     1  UNL1        0.1761
     34 O          21.0394   73.2875   -8.9513 O.3     1  UNL1       -0.3775
     35 O          18.3360   73.1315   -9.9757 O.3     1  UNL1       -0.3794
     36 O          17.7247   70.6104   -8.9966 O.3     1  UNL1       -0.3794
     37 O          19.5349   70.7003   -6.8361 O.3     1  UNL1       -0.3258
     38 H          21.9249   72.9014   -8.9093 H       1  UNL1        0.2106
     39 H          18.9646   73.8013  -10.2732 H       1  UNL1        0.2105
     40 H          17.4173   70.9449   -9.8492 H       1  UNL1        0.2105
     41 C          17.2682   70.2117   -6.1638 C.3     1  UNL1        0.1693
     42 O          16.0037   70.3284   -6.8182 O.3     1  UNL1       -0.3794
     43 H          15.4289   69.6489   -6.4398 H       1  UNL1        0.2105
@<TRIPOS>BOND
     1    15    16   ar
     2    15    20   ar
     3    15     6    1
     4    16    17   ar
     5    16    21    2
     6    17    18   ar
     7    17    23    1
     8    18    19   ar
     9    18    22    2
    10    19    20   ar
    11     6     7    1
    12     6    11    1
    13     7     8    1
    14     7     9    1
    15     8    13    1
    16     9    10    1
    17     9    12    1
    18    10    11    1
    19    10     5    1
    20    12    14    1
    21     5     4    1
    22     4     1    1
    23     1     2    2
    24     1     3    1
    25     1    24    1
    26    24    25    1
    27    25    26    2
    28    25    27    1
    29    25    28    1
    30    28    29    1
    31    29    30    1
    32    29    37    1
    33    30    31    1
    34    30    34    1
    35    31    32    1
    36    31    35    1
    37    32    33    1
    38    32    36    1
    39    33    41    1
    40    33    37    1
    41    41    42    1
    42    34    38    1
    43    35    39    1
    44    36    40    1
    45    42    43    1
@<TRIPOS>MOLECULE
GDU
 43 45 0 0 0
SMALL
GASTEIGER

@<TRIPOS>ATOM
      1 P          21.8859   70.8564   -0.5753 P.3     1  UNL1        0.2189
      2 O          21.2407   69.5989   -0.1373 O.2     1  UNL1       -0.5170
      3 O          23.0646   70.5193   -1.6195 O.3     1  UNL1       -0.4371
      4 O          20.7946   71.8012   -1.2847 O.3     1  UNL1       -0.3112
      5 C          20.7819   71.4512   -2.6696 C.3     1  UNL1        0.1811
      6 C          18.2506   71.1574   -5.2060 C.3     1  UNL1        0.2383
      7 C          18.1773   69.8196   -4.4263 C.3     1  UNL1        0.1895
      8 O          16.8460   69.2990   -4.4308 O.3     1  UNL1       -0.3779
      9 C          18.5969   70.2528   -2.9975 C.3     1  UNL1        0.1713
     10 C          19.3581   71.5737   -3.2154 C.3     1  UNL1        0.1764
     11 O          19.3974   71.8195   -4.6318 O.3     1  UNL1       -0.3308
     12 O          17.4438   70.4612   -2.1797 O.3     1  UNL1       -0.3794
     13 H          16.8690   68.4704   -3.9321 H       1  UNL1        0.2106
     14 H          16.9791   69.6148   -2.1299 H       1  UNL1        0.2105
     15 N          18.4573   70.9137   -6.6345 N.ar    1  UNL1       -0.2551
     16 C          17.3955   70.7750   -7.4479 C.ar    1  UNL1        0.3323
     17 N          17.5580   70.5538   -8.7656 N.ar    1  UNL1       -0.2743
     18 C          18.7943   70.4575   -9.2915 C.ar    1  UNL1        0.2626
     19 C          19.9221   70.5957   -8.4458 C.ar    1  UNL1        0.0795
     20 C          19.7306   70.8213   -7.1287 C.ar    1  UNL1        0.0869
     21 O          16.2741   70.8600   -6.9880 O.2     1  UNL1       -0.2464
     22 O          18.9424   70.2526  -10.4834 O.2     1  UNL1       -0.2670
     23 H          16.7804   70.4606   -9.3386 H       1  UNL1        0.1734
     24 O          22.5043   71.6149    0.7032 O.3     1  UNL1       -0.2703
     25 P          22.0346   73.1512    0.6066 P.3     1  UNL1        0.2208
     26 O          22.7334   73.8106   -0.5185 O.2     1  UNL1       -0.5170
     27 O          20.4442   73.2113    0.3592 O.3     1  UNL1       -0.4371
     28 O          22.3918   73.9101    1.9802 O.3     1  UNL1       -0.2858
     29 C          22.8548   72.9160    2.8952 C.3     1  UNL1        0.2704
     30 C          21.7091   72.5022    3.8201 C.3     1  UNL1        0.1967
     31 C          21.2050   73.7374    4.5728 C.3     1  UNL1        0.1715
     32 C          22.3955   74.4070    5.2685 C.3     1  UNL1        0.1694
     33 C          23.4892   74.6783    4.2325 C.3     1  UNL1        0.1761
     34 O          20.6458   71.9451    3.0453 O.3     1  UNL1       -0.3775
     35 O          20.2360   73.3438    5.5468 O.3     1  UNL1       -0.3794
     36 O          22.9003   73.5438    6.2883 O.3     1  UNL1       -0.3794
     37 O          23.9313   73.4460    3.6652 O.3     1  UNL1       -0.3258
     38 H          21.0094   71.1768    2.5844 H       1  UNL1        0.2106
     39 H          19.5140   72.9184    5.0672 H       1  UNL1        0.2105
     40 H          22.1782   73.3964    6.9130 H       1  UNL1        0.2105
     41 C          24.6692   75.3782    4.9105 C.3     1  UNL1        0.1693
     42 O          24.2554   75.8856    6.1802 O.3     1  UNL1       -0.3794
     43 H          25.0261   76.3173    6.5738 H       1  UNL1        0.2105
@<TRIPOS>BOND
     1    15    16   ar
     2    15    20   ar
     3    15     6    1
     4    16    17   ar
     5    16    21    2
     6    17    18   ar
     7    17    23    1
     8    18    19   ar
     9    18    22    2
    10    19    20   ar
    11     6     7    1
    12     6    11    1
    13     7     8    1
    14     7     9    1
    15     8    13    1
    16     9    10    1
    17     9    12    1
    18    10    11    1
    19    10     5    1
    20    12    14    1
    21     5     4    1
    22     4     1    1
    23     1     2    2
    24     1     3    1
    25     1    24    1
    26    24    25    1
    27    25    26    2
    28    25    27    1
    29    25    28    1
    30    28    29    1
    31    29    30    1
    32    29    37    1
    33    30    31    1
    34    30    34    1
    35    31    32    1
    36    31    35    1
    37    32    33    1
    38    32    36    1
    39    33    41    1
    40    33    37    1
    41    41    42    1
    42    34    38    1
    43    35    39    1
    44    36    40    1
    45    42    43    1
@<TRIPOS>MOLECULE
GDU
 43 45 0 0 0
SMALL
GASTEIGER

@<TRIPOS>ATOM
      1 P          22.0318   73.9644   -7.0207 P.3     1  UNL1        0.2189
      2 O          22.7933   72.7080   -7.1968 O.2     1  UNL1       -0.5170
      3 O          23.0557   75.2037   -6.9269 O.3     1  UNL1       -0.4371
      4 O          21.0469   74.1757   -8.2745 O.3     1  UNL1       -0.3112
      5 C          21.2804   73.0891   -9.1719 C.3     1  UNL1        0.1811
      6 C          18.5571   71.1613   -7.8325 C.3     1  UNL1        0.2383
      7 C          17.9813   72.5921   -7.9881 C.3     1  UNL1        0.1895
      8 O          16.5788   72.5505   -8.2610 O.3     1  UNL1       -0.3779
      9 C          18.7676   73.1271   -9.2132 C.3     1  UNL1        0.1713
     10 C          20.0184   72.2309   -9.2757 C.3     1  UNL1        0.1764
     11 O          19.9529   71.3219   -8.1632 O.3     1  UNL1       -0.3308
     12 O          17.9886   72.9940  -10.4038 O.3     1  UNL1       -0.3794
     13 H          16.2840   73.4679   -8.3460 H       1  UNL1        0.2106
     14 H          17.1935   73.5299  -10.2796 H       1  UNL1        0.2105
     15 N          18.4044   70.6885   -6.4555 N.ar    1  UNL1       -0.2551
     16 C          17.2569   70.0988   -6.0763 C.ar    1  UNL1        0.3323
     17 N          17.0922   69.6520   -4.8173 N.ar    1  UNL1       -0.2743
     18 C          18.0764   69.7986   -3.9095 C.ar    1  UNL1        0.2626
     19 C          19.2885   70.4231   -4.2932 C.ar    1  UNL1        0.0795
     20 C          19.4289   70.8581   -5.5635 C.ar    1  UNL1        0.0869
     21 O          16.3603   69.9591   -6.8842 O.2     1  UNL1       -0.2464
     22 O          17.9265   69.3988   -2.7684 O.2     1  UNL1       -0.2670
     23 H          16.2590   69.2250   -4.5621 H       1  UNL1        0.1734
     24 O          21.1668   73.8811   -5.6652 O.3     1  UNL1       -0.2703
     25 P          22.2150   73.8297   -4.4452 P.3     1  UNL1        0.2208
     26 O          23.4579   73.1621   -4.8907 O.2     1  UNL1       -0.5170
     27 O          22.5542   75.3295   -3.9659 O.3     1  UNL1       -0.4371
     28 O          21.5733   73.0081   -3.2191 O.3     1  UNL1       -0.2858
     29 C          22.5954   72.8713   -2.2311 C.3     1  UNL1        0.2704
     30 C          22.8005   71.3895   -1.9124 C.3     1  UNL1        0.1967
     31 C          21.4793   70.8002   -1.4090 C.3     1  UNL1        0.1715
     32 C          20.9752   71.6549   -0.2406 C.3     1  UNL1        0.1694
     33 C          20.9066   73.1174   -0.6871 C.3     1  UNL1        0.1761
     34 O          23.2154   70.6991   -3.0925 O.3     1  UNL1       -0.3775
     35 O          21.6896   69.4570   -0.9686 O.3     1  UNL1       -0.3794
     36 O          21.8709   71.5293    0.8647 O.3     1  UNL1       -0.3794
     37 O          22.2096   73.5714   -1.0506 O.3     1  UNL1       -0.3258
     38 H          24.0446   71.1069   -3.3773 H       1  UNL1        0.2106
     39 H          22.0164   68.9608   -1.7297 H       1  UNL1        0.2105
     40 H          21.8868   70.5943    1.1072 H       1  UNL1        0.2105
     41 C          20.3715   73.9751    0.4618 C.3     1  UNL1        0.1693
     42 O          21.4532   74.3587    1.3126 O.3     1  UNL1       -0.3794
     43 H          21.0747   74.8969    2.0213 H       1  UNL1        0.2105
@<TRIPOS>BOND
     1    15    16   ar
     2    15    20   ar
     3    15     6    1
     4    16    17   ar
     5    16    21    2
     6    17    18   ar
     7    17    23    1
     8    18    19   ar
     9    18    22    2
    10    19    20   ar
    11     6     7    1
    12     6    11    1
    13     7     8    1
    14     7     9    1
    15     8    13    1
    16     9    10    1
    17     9    12    1
    18    10    11    1
    19    10     5    1
    20    12    14    1
    21     5     4    1
    22     4     1    1
    23     1     2    2
    24     1     3    1
    25     1    24    1
    26    24    25    1
    27    25    26    2
    28    25    27    1
    29    25    28    1
    30    28    29    1
    31    29    30    1
    32    29    37    1
    33    30    31    1
    34    30    34    1
    35    31    32    1
    36    31    35    1
    37    32    33    1
    38    32    36    1
    39    33    41    1
    40    33    37    1
    41    41    42    1
    42    34    38    1
    43    35    39    1
    44    36    40    1
    45    42    43    1
@<TRIPOS>MOLECULE
GDU
 43 45 0 0 0
SMALL
GASTEIGER

@<TRIPOS>ATOM
      1 P          23.0830   73.0304   -4.0346 P.3     1  UNL1        0.2189
      2 O          24.3632   73.7591   -3.8940 O.2     1  UNL1       -0.5170
      3 O          21.9101   73.8612   -3.3087 O.3     1  UNL1       -0.4371
      4 O          22.7319   72.8578   -5.5947 O.3     1  UNL1       -0.3112
      5 C          22.5182   74.1695   -6.1183 C.3     1  UNL1        0.1811
      6 C          19.7132   73.1473   -8.1219 C.3     1  UNL1        0.2383
      7 C          19.3323   74.5605   -7.6115 C.3     1  UNL1        0.1895
      8 O          18.5011   75.2374   -8.5571 O.3     1  UNL1       -0.3779
      9 C          20.7171   75.2497   -7.4993 C.3     1  UNL1        0.1713
     10 C          21.7126   74.0777   -7.4155 C.3     1  UNL1        0.1764
     11 O          20.9470   72.8604   -7.4300 O.3     1  UNL1       -0.3308
     12 O          20.9721   76.0497   -8.6555 O.3     1  UNL1       -0.3794
     13 H          18.3007   76.1058   -8.1809 H       1  UNL1        0.2106
     14 H          20.2831   76.7273   -8.6848 H       1  UNL1        0.2105
     15 N          18.6821   72.1719   -7.7637 N.ar    1  UNL1       -0.2551
     16 C          18.3757   71.1808   -8.6194 C.ar    1  UNL1        0.3323
     17 N          17.4342   70.2690   -8.3128 N.ar    1  UNL1       -0.2743
     18 C          16.7734   70.3414   -7.1414 C.ar    1  UNL1        0.2626
     19 C          17.0816   71.3833   -6.2327 C.ar    1  UNL1        0.0795
     20 C          18.0332   72.2820   -6.5634 C.ar    1  UNL1        0.0869
     21 O          18.9636   71.1023   -9.6797 O.2     1  UNL1       -0.2464
     22 O          15.9176   69.5193   -6.8651 O.2     1  UNL1       -0.2670
     23 H          17.2288   69.5579   -8.9405 H       1  UNL1        0.1734
     24 O          23.2144   71.5795   -3.3491 O.3     1  UNL1       -0.2703
     25 P          21.7569   71.1965   -2.7843 P.3     1  UNL1        0.2208
     26 O          20.7244   71.6240   -3.7540 O.2     1  UNL1       -0.5170
     27 O          21.6658   69.6026   -2.5718 O.3     1  UNL1       -0.4371
     28 O          21.5133   71.9390   -1.3773 O.3     1  UNL1       -0.2858
     29 C          22.6647   71.6875   -0.5706 C.3     1  UNL1        0.2704
     30 C          22.2257   71.1242    0.7819 C.3     1  UNL1        0.1967
     31 C          21.2969   72.1331    1.4644 C.3     1  UNL1        0.1715
     32 C          22.0062   73.4908    1.5225 C.3     1  UNL1        0.1694
     33 C          22.4604   73.8758    0.1124 C.3     1  UNL1        0.1761
     34 O          21.5324   69.8907    0.5843 O.3     1  UNL1       -0.3775
     35 O          20.9959   71.6889    2.7891 O.3     1  UNL1       -0.3794
     36 O          23.1395   73.4012    2.3870 O.3     1  UNL1       -0.3794
     37 O          23.3829   72.9040   -0.3782 O.3     1  UNL1       -0.3258
     38 H          22.1510   69.2900    0.1469 H       1  UNL1        0.2106
     39 H          20.5634   70.8298    2.7046 H       1  UNL1        0.2105
     40 H          22.8073   73.1516    3.2592 H       1  UNL1        0.2105
     41 C          23.1398   75.2464    0.1537 C.3     1  UNL1        0.1693
     42 O          24.5501   75.0737    0.3035 O.3     1  UNL1       -0.3794
     43 H          24.9398   75.9586    0.3243 H       1  UNL1        0.2105
@<TRIPOS>BOND
     1    15    16   ar
     2    15    20   ar
     3    15     6    1
     4    16    17   ar
     5    16    21    2
     6    17    18   ar
     7    17    23    1
     8    18    19   ar
     9    18    22    2
    10    19    20   ar
    11     6     7    1
    12     6    11    1
    13     7     8    1
    14     7     9    1
    15     8    13    1
    16     9    10    1
    17     9    12    1
    18    10    11    1
    19    10     5    1
    20    12    14    1
    21     5     4    1
    22     4     1    1
    23     1     2    2
    24     1     3    1
    25     1    24    1
    26    24    25    1
    27    25    26    2
    28    25    27    1
    29    25    28    1
    30    28    29    1
    31    29    30    1
    32    29    37    1
    33    30    31    1
    34    30    34    1
    35    31    32    1
    36    31    35    1
    37    32    33    1
    38    32    36    1
    39    33    41    1
    40    33    37    1
    41    41    42    1
    42    34    38    1
    43    35    39    1
    44    36    40    1
    45    42    43    1
@<TRIPOS>MOLECULE
GDU
 43 45 0 0 0
SMALL
GASTEIGER

@<TRIPOS>ATOM
      1 P          21.5931   70.6377   -1.9806 P.3     1  UNL1        0.2189
      2 O          20.4443   70.3248   -1.1021 O.2     1  UNL1       -0.5170
      3 O          21.6379   69.5869   -3.2000 O.3     1  UNL1       -0.4371
      4 O          21.4338   72.1286   -2.5626 O.3     1  UNL1       -0.3112
      5 C          22.7010   72.4970   -3.1094 C.3     1  UNL1        0.1811
      6 C          20.8903   72.6255   -6.2130 C.3     1  UNL1        0.2383
      7 C          20.7291   74.0442   -5.6094 C.3     1  UNL1        0.1895
      8 O          20.6150   75.0272   -6.6409 O.3     1  UNL1       -0.3779
      9 C          22.0562   74.2165   -4.8256 C.3     1  UNL1        0.1713
     10 C          22.5511   72.7748   -4.6062 C.3     1  UNL1        0.1764
     11 O          21.5672   71.8910   -5.1710 O.3     1  UNL1       -0.3308
     12 O          22.9985   74.9642   -5.5969 O.3     1  UNL1       -0.3794
     13 H          20.5176   75.8832   -6.2008 H       1  UNL1        0.2106
     14 H          22.6068   75.8346   -5.7506 H       1  UNL1        0.2105
     15 N          19.5827   72.0317   -6.4966 N.ar    1  UNL1       -0.2551
     16 C          19.4225   71.2615   -7.5872 C.ar    1  UNL1        0.3323
     17 N          18.2316   70.7008   -7.8689 N.ar    1  UNL1       -0.2743
     18 C          17.1731   70.9119   -7.0633 C.ar    1  UNL1        0.2626
     19 C          17.3256   71.7257   -5.9141 C.ar    1  UNL1        0.0795
     20 C          18.5319   72.2723   -5.6527 C.ar    1  UNL1        0.0869
     21 O          20.3684   71.0616   -8.3230 O.2     1  UNL1       -0.2464
     22 O          16.0935   70.4087   -7.3201 O.2     1  UNL1       -0.2670
     23 H          18.1351   70.1442   -8.6580 H       1  UNL1        0.1734
     24 O          22.9588   70.5338   -1.1341 O.3     1  UNL1       -0.2703
     25 P          22.5495   70.5941    0.4212 P.3     1  UNL1        0.2208
     26 O          21.2164   69.9791    0.6044 O.2     1  UNL1       -0.5170
     27 O          23.6366   69.7872    1.2936 O.3     1  UNL1       -0.4371
     28 O          22.5053   72.1279    0.9065 O.3     1  UNL1       -0.2858
     29 C          21.2506   72.3201    1.5611 C.3     1  UNL1        0.2704
     30 C          20.5909   73.5950    1.0333 C.3     1  UNL1        0.1967
     31 C          21.5233   74.7826    1.2918 C.3     1  UNL1        0.1715
     32 C          21.8873   74.8048    2.7807 C.3     1  UNL1        0.1694
     33 C          22.4509   73.4376    3.1757 C.3     1  UNL1        0.1761
     34 O          20.3552   73.4663   -0.3700 O.3     1  UNL1       -0.3775
     35 O          20.8609   75.9988    0.9389 O.3     1  UNL1       -0.3794
     36 O          20.7200   75.0872    3.5538 O.3     1  UNL1       -0.3794
     37 O          21.4619   72.4305    2.9667 O.3     1  UNL1       -0.3258
     38 H          19.7712   72.7045   -0.4860 H       1  UNL1        0.2106
     39 H          20.6409   75.9356    0.0008 H       1  UNL1        0.2105
     40 H          20.3974   75.9518    3.2679 H       1  UNL1        0.2105
     41 C          22.8496   73.4597    4.6530 C.3     1  UNL1        0.1693
     42 O          22.0989   72.4731    5.3630 O.3     1  UNL1       -0.3794
     43 H          22.3798   72.5191    6.2872 H       1  UNL1        0.2105
@<TRIPOS>BOND
     1    15    16   ar
     2    15    20   ar
     3    15     6    1
     4    16    17   ar
     5    16    21    2
     6    17    18   ar
     7    17    23    1
     8    18    19   ar
     9    18    22    2
    10    19    20   ar
    11     6     7    1
    12     6    11    1
    13     7     8    1
    14     7     9    1
    15     8    13    1
    16     9    10    1
    17     9    12    1
    18    10    11    1
    19    10     5    1
    20    12    14    1
    21     5     4    1
    22     4     1    1
    23     1     2    2
    24     1     3    1
    25     1    24    1
    26    24    25    1
    27    25    26    2
    28    25    27    1
    29    25    28    1
    30    28    29    1
    31    29    30    1
    32    29    37    1
    33    30    31    1
    34    30    34    1
    35    31    32    1
    36    31    35    1
    37    32    33    1
    38    32    36    1
    39    33    41    1
    40    33    37    1
    41    41    42    1
    42    34    38    1
    43    35    39    1
    44    36    40    1
    45    42    43    1
@<TRIPOS>MOLECULE
GDU
 43 45 0 0 0
SMALL
GASTEIGER

@<TRIPOS>ATOM
      1 P          22.0297   71.5425   -1.4299 P.3     1  UNL1        0.2189
      2 O          20.6458   71.6255   -0.9126 O.2     1  UNL1       -0.5170
      3 O          22.1846   70.2220   -2.3383 O.3     1  UNL1       -0.4371
      4 O          22.3503   72.8450   -2.3174 O.3     1  UNL1       -0.3112
      5 C          22.4159   72.4131   -3.6774 C.3     1  UNL1        0.1811
      6 C          20.3468   73.2987   -6.4813 C.3     1  UNL1        0.2383
      7 C          19.3477   73.0607   -5.3203 C.3     1  UNL1        0.1895
      8 O          18.1905   73.8871   -5.4658 O.3     1  UNL1       -0.3779
      9 C          20.1799   73.4871   -4.0830 C.3     1  UNL1        0.1713
     10 C          21.6401   73.3902   -4.5626 C.3     1  UNL1        0.1764
     11 O          21.6173   72.9092   -5.9177 O.3     1  UNL1       -0.3308
     12 O          19.8590   74.8266   -3.7026 O.3     1  UNL1       -0.3794
     13 H          17.6119   73.6914   -4.7157 H       1  UNL1        0.2106
     14 H          18.9205   74.8347   -3.4706 H       1  UNL1        0.2105
     15 N          20.0135   72.4577   -7.6321 N.ar    1  UNL1       -0.2551
     16 C          19.6278   73.0294   -8.7865 C.ar    1  UNL1        0.3323
     17 N          19.3192   72.2790   -9.8606 N.ar    1  UNL1       -0.2743
     18 C          19.3829   70.9353   -9.7923 C.ar    1  UNL1        0.2626
     19 C          19.7821   70.3191   -8.5811 C.ar    1  UNL1        0.0795
     20 C          20.0901   71.0954   -7.5204 C.ar    1  UNL1        0.0869
     21 O          19.5661   74.2403   -8.8634 O.2     1  UNL1       -0.2464
     22 O          19.0992   70.2551  -10.7625 O.2     1  UNL1       -0.2670
     23 H          19.0468   72.7086  -10.6870 H       1  UNL1        0.1734
     24 O          23.0596   71.4664   -0.1946 O.3     1  UNL1       -0.2703
     25 P          22.3391   70.6094    0.9614 P.3     1  UNL1        0.2208
     26 O          21.5349   69.5303    0.3468 O.2     1  UNL1       -0.5170
     27 O          23.4561   69.9631    1.9251 O.3     1  UNL1       -0.4371
     28 O          21.3790   71.5706    1.8242 O.3     1  UNL1       -0.2858
     29 C          22.1988   72.6190    2.3425 C.3     1  UNL1        0.2704
     30 C          21.8275   72.8808    3.8030 C.3     1  UNL1        0.1967
     31 C          20.3464   73.2641    3.8799 C.3     1  UNL1        0.1715
     32 C          20.0926   74.4340    2.9225 C.3     1  UNL1        0.1694
     33 C          20.5941   74.0532    1.5273 C.3     1  UNL1        0.1761
     34 O          22.0588   71.7009    4.5746 O.3     1  UNL1       -0.3775
     35 O          20.0202   73.6541    5.2155 O.3     1  UNL1       -0.3794
     36 O          20.7895   75.5911    3.3866 O.3     1  UNL1       -0.3794
     37 O          21.9979   73.8018    1.5724 O.3     1  UNL1       -0.3258
     38 H          22.9995   71.4932    4.4916 H       1  UNL1        0.2106
     39 H          20.2060   72.8947    5.7821 H       1  UNL1        0.2105
     40 H          20.4464   75.7898    4.2676 H       1  UNL1        0.2105
     41 C          20.3142   75.2018    0.5555 C.3     1  UNL1        0.1693
     42 O          21.2980   76.2229    0.7303 O.3     1  UNL1       -0.3794
     43 H          21.0867   76.9259    0.1007 H       1  UNL1        0.2105
@<TRIPOS>BOND
     1    15    16   ar
     2    15    20   ar
     3    15     6    1
     4    16    17   ar
     5    16    21    2
     6    17    18   ar
     7    17    23    1
     8    18    19   ar
     9    18    22    2
    10    19    20   ar
    11     6     7    1
    12     6    11    1
    13     7     8    1
    14     7     9    1
    15     8    13    1
    16     9    10    1
    17     9    12    1
    18    10    11    1
    19    10     5    1
    20    12    14    1
    21     5     4    1
    22     4     1    1
    23     1     2    2
    24     1     3    1
    25     1    24    1
    26    24    25    1
    27    25    26    2
    28    25    27    1
    29    25    28    1
    30    28    29    1
    31    29    30    1
    32    29    37    1
    33    30    31    1
    34    30    34    1
    35    31    32    1
    36    31    35    1
    37    32    33    1
    38    32    36    1
    39    33    41    1
    40    33    37    1
    41    41    42    1
    42    34    38    1
    43    35    39    1
    44    36    40    1
    45    42    43    1
@<TRIPOS>MOLECULE
GDU
 43 45 0 0 0
SMALL
GASTEIGER

@<TRIPOS>ATOM
      1 P          21.8786   70.4534   -0.3829 P.3     1  UNL1        0.2189
      2 O          20.8916   71.2677    0.3603 O.2     1  UNL1       -0.5170
      3 O          22.6678   69.4972    0.6445 O.3     1  UNL1       -0.4371
      4 O          21.1173   69.5532   -1.4769 O.3     1  UNL1       -0.3112
      5 C          21.2103   70.2479   -2.7216 C.3     1  UNL1        0.1811
      6 C          18.5619   70.8093   -5.0877 C.3     1  UNL1        0.2383
      7 C          18.2455   69.4226   -4.4712 C.3     1  UNL1        0.1895
      8 O          16.8359   69.1867   -4.4432 O.3     1  UNL1       -0.3779
      9 C          18.8104   69.5693   -3.0344 C.3     1  UNL1        0.1713
     10 C          19.8205   70.7264   -3.1457 C.3     1  UNL1        0.1764
     11 O          19.8466   71.1445   -4.5214 O.3     1  UNL1       -0.3308
     12 O          17.7644   69.8959   -2.1172 O.3     1  UNL1       -0.3794
     13 H          16.7074   68.3119   -4.0507 H       1  UNL1        0.2106
     14 H          17.1357   69.1617   -2.1364 H       1  UNL1        0.2105
     15 N          18.6485   70.7202   -6.5462 N.ar    1  UNL1       -0.2551
     16 C          17.5231   70.7192   -7.2823 C.ar    1  UNL1        0.3323
     17 N          17.5751   70.6418   -8.6251 N.ar    1  UNL1       -0.2743
     18 C          18.7621   70.5536   -9.2556 C.ar    1  UNL1        0.2626
     19 C          19.9556   70.5477   -8.4929 C.ar    1  UNL1        0.0795
     20 C          19.8749   70.6308   -7.1478 C.ar    1  UNL1        0.0869
     21 O          16.4451   70.7987   -6.7276 O.2     1  UNL1       -0.2464
     22 O          18.8100   70.4786  -10.4708 O.2     1  UNL1       -0.2670
     23 H          16.7531   70.6467   -9.1408 H       1  UNL1        0.1734
     24 O          22.9274   71.4260   -1.1222 O.3     1  UNL1       -0.2703
     25 P          22.6755   72.9076   -0.5466 P.3     1  UNL1        0.2208
     26 O          21.3461   73.3872   -0.9843 O.2     1  UNL1       -0.5170
     27 O          22.7303   72.8743    1.0628 O.3     1  UNL1       -0.4371
     28 O          23.8145   73.9006   -1.1006 O.3     1  UNL1       -0.2858
     29 C          23.2430   74.6177   -2.1956 C.3     1  UNL1        0.2704
     30 C          24.0856   74.3864   -3.4509 C.3     1  UNL1        0.1967
     31 C          25.5181   74.8586   -3.1838 C.3     1  UNL1        0.1715
     32 C          25.4717   76.3080   -2.6873 C.3     1  UNL1        0.1694
     33 C          24.5248   76.3932   -1.4877 C.3     1  UNL1        0.1761
     34 O          24.0912   72.9947   -3.7739 O.3     1  UNL1       -0.3775
     35 O          26.2804   74.7861   -4.3906 O.3     1  UNL1       -0.3794
     36 O          25.0011   77.1572   -3.7349 O.3     1  UNL1       -0.3794
     37 O          23.2093   76.0086   -1.8847 O.3     1  UNL1       -0.3258
     38 H          23.1710   72.7400   -3.9266 H       1  UNL1        0.2106
     39 H          26.2724   73.8624   -4.6715 H       1  UNL1        0.2105
     40 H          25.6229   77.0671   -4.4688 H       1  UNL1        0.2105
     41 C          24.4976   77.8303   -0.9626 C.3     1  UNL1        0.1693
     42 O          23.2203   78.1005   -0.3824 O.3     1  UNL1       -0.3794
     43 H          23.2450   79.0133   -0.0638 H       1  UNL1        0.2105
@<TRIPOS>BOND
     1    15    16   ar
     2    15    20   ar
     3    15     6    1
     4    16    17   ar
     5    16    21    2
     6    17    18   ar
     7    17    23    1
     8    18    19   ar
     9    18    22    2
    10    19    20   ar
    11     6     7    1
    12     6    11    1
    13     7     8    1
    14     7     9    1
    15     8    13    1
    16     9    10    1
    17     9    12    1
    18    10    11    1
    19    10     5    1
    20    12    14    1
    21     5     4    1
    22     4     1    1
    23     1     2    2
    24     1     3    1
    25     1    24    1
    26    24    25    1
    27    25    26    2
    28    25    27    1
    29    25    28    1
    30    28    29    1
    31    29    30    1
    32    29    37    1
    33    30    31    1
    34    30    34    1
    35    31    32    1
    36    31    35    1
    37    32    33    1
    38    32    36    1
    39    33    41    1
    40    33    37    1
    41    41    42    1
    42    34    38    1
    43    35    39    1
    44    36    40    1
    45    42    43    1
@<TRIPOS>MOLECULE
GDU
 43 45 0 0 0
SMALL
GASTEIGER

@<TRIPOS>ATOM
      1 P          19.5176   69.6975   -3.0158 P.3     1  UNL1        0.2189
      2 O          20.8173   69.0243   -2.7989 O.2     1  UNL1       -0.5170
      3 O          18.3386   68.8067   -2.3759 O.3     1  UNL1       -0.4371
      4 O          19.5384   71.1443   -2.3136 O.3     1  UNL1       -0.3112
      5 C          20.6778   71.1700   -1.4525 C.3     1  UNL1        0.1811
      6 C          21.6959   73.7609    0.8231 C.3     1  UNL1        0.2383
      7 C          23.0040   73.3336    0.1095 C.3     1  UNL1        0.1895
      8 O          23.9103   74.4340    0.0043 O.3     1  UNL1       -0.3779
      9 C          22.4868   72.9074   -1.2891 C.3     1  UNL1        0.1713
     10 C          20.9919   72.6155   -1.0623 C.3     1  UNL1        0.1764
     11 O          20.7217   72.8136    0.3362 O.3     1  UNL1       -0.3308
     12 O          22.6590   73.9688   -2.2303 O.3     1  UNL1       -0.3794
     13 H          24.6997   74.1030   -0.4464 H       1  UNL1        0.2106
     14 H          23.6082   74.1442   -2.2841 H       1  UNL1        0.2105
     15 N          21.8393   73.6527    2.2759 N.ar    1  UNL1       -0.2551
     16 C          21.7346   72.4502    2.8686 C.ar    1  UNL1        0.3323
     17 N          21.8659   72.3228    4.2021 N.ar    1  UNL1       -0.2743
     18 C          22.0958   73.4057    4.9693 C.ar    1  UNL1        0.2626
     19 C          22.2027   74.6796    4.3594 C.ar    1  UNL1        0.0795
     20 C          22.0711   74.7785    3.0194 C.ar    1  UNL1        0.0869
     21 O          21.5279   71.4642    2.1895 O.2     1  UNL1       -0.2464
     22 O          22.2100   73.2921    6.1770 O.2     1  UNL1       -0.2670
     23 H          21.7917   71.4466    4.6126 H       1  UNL1        0.1734
     24 O          19.2607   69.8700   -4.5959 O.3     1  UNL1       -0.2703
     25 P          17.7725   70.4586   -4.7652 P.3     1  UNL1        0.2208
     26 O          16.8232   69.3445   -4.9812 O.2     1  UNL1       -0.5170
     27 O          17.3595   71.2642   -3.4331 O.3     1  UNL1       -0.4371
     28 O          17.7288   71.4547   -6.0285 O.3     1  UNL1       -0.2858
     29 C          19.0677   71.8974   -6.2544 C.3     1  UNL1        0.2704
     30 C          19.0482   73.3407   -6.7602 C.3     1  UNL1        0.1967
     31 C          18.2318   73.4044   -8.0548 C.3     1  UNL1        0.1715
     32 C          18.7957   72.3752   -9.0409 C.3     1  UNL1        0.1694
     33 C          18.8324   71.0037   -8.3621 C.3     1  UNL1        0.1761
     34 O          18.4518   74.1854   -5.7744 O.3     1  UNL1       -0.3775
     35 O          18.3263   74.7145   -8.6180 O.3     1  UNL1       -0.3794
     36 O          20.1163   72.7577   -9.4278 O.3     1  UNL1       -0.3794
     37 O          19.6884   71.0538   -7.2217 O.3     1  UNL1       -0.3258
     38 H          18.9929   74.1086   -4.9768 H       1  UNL1        0.2106
     39 H          17.9729   75.3277   -7.9612 H       1  UNL1        0.2105
     40 H          20.0453   73.6266   -9.8440 H       1  UNL1        0.2105
     41 C          19.3620   69.9617   -9.3500 C.3     1  UNL1        0.1693
     42 O          18.9706   70.3215  -10.6760 O.3     1  UNL1       -0.3794
     43 H          19.3238   69.6417  -11.2662 H       1  UNL1        0.2105
@<TRIPOS>BOND
     1    15    16   ar
     2    15    20   ar
     3    15     6    1
     4    16    17   ar
     5    16    21    2
     6    17    18   ar
     7    17    23    1
     8    18    19   ar
     9    18    22    2
    10    19    20   ar
    11     6     7    1
    12     6    11    1
    13     7     8    1
    14     7     9    1
    15     8    13    1
    16     9    10    1
    17     9    12    1
    18    10    11    1
    19    10     5    1
    20    12    14    1
    21     5     4    1
    22     4     1    1
    23     1     2    2
    24     1     3    1
    25     1    24    1
    26    24    25    1
    27    25    26    2
    28    25    27    1
    29    25    28    1
    30    28    29    1
    31    29    30    1
    32    29    37    1
    33    30    31    1
    34    30    34    1
    35    31    32    1
    36    31    35    1
    37    32    33    1
    38    32    36    1
    39    33    41    1
    40    33    37    1
    41    41    42    1
    42    34    38    1
    43    35    39    1
    44    36    40    1
    45    42    43    1
@<TRIPOS>MOLECULE
GDU
 43 45 0 0 0
SMALL
GASTEIGER

@<TRIPOS>ATOM
      1 P          21.1952   70.3369   -1.5654 P.3     1  UNL1        0.2189
      2 O          22.6094   70.4470   -1.9866 O.2     1  UNL1       -0.5170
      3 O          20.4721   69.1737   -2.4122 O.3     1  UNL1       -0.4371
      4 O          21.1276   69.9810    0.0016 O.3     1  UNL1       -0.3112
      5 C          22.0649   70.8342    0.6605 C.3     1  UNL1        0.1811
      6 C          21.3171   73.8284    2.5052 C.3     1  UNL1        0.2383
      7 C          22.6298   74.1553    1.7483 C.3     1  UNL1        0.1895
      8 O          22.7039   75.5478    1.4340 O.3     1  UNL1       -0.3779
      9 C          22.4824   73.3046    0.4599 C.3     1  UNL1        0.1713
     10 C          21.4527   72.2246    0.8404 C.3     1  UNL1        0.1764
     11 O          21.1033   72.4297    2.2202 O.3     1  UNL1       -0.3308
     12 O          21.9986   74.1092   -0.6174 O.3     1  UNL1       -0.3794
     13 H          23.5399   75.6840    0.9666 H       1  UNL1        0.2106
     14 H          22.6574   74.8005   -0.7685 H       1  UNL1        0.2105
     15 N          21.4817   74.0424    3.9439 N.ar    1  UNL1       -0.2551
     16 C          22.0389   73.0814    4.7016 C.ar    1  UNL1        0.3323
     17 N          22.2050   73.2543    6.0261 N.ar    1  UNL1       -0.2743
     18 C          21.8041   74.3957    6.6183 C.ar    1  UNL1        0.2626
     19 C          21.2103   75.4145    5.8337 C.ar    1  UNL1        0.0795
     20 C          21.0595   75.2167    4.5068 C.ar    1  UNL1        0.0869
     21 O          22.4059   72.0465    4.1814 O.2     1  UNL1       -0.2464
     22 O          21.9496   74.5512    7.8180 O.2     1  UNL1       -0.2670
     23 H          22.6129   72.5518    6.5569 H       1  UNL1        0.1734
     24 O          20.4464   71.7373   -1.8317 O.3     1  UNL1       -0.2703
     25 P          20.7796   72.1637   -3.3474 P.3     1  UNL1        0.2208
     26 O          20.5301   73.6120   -3.5183 O.2     1  UNL1       -0.5170
     27 O          22.3257   71.8447   -3.6668 O.3     1  UNL1       -0.4371
     28 O          19.8419   71.3336   -4.3581 O.3     1  UNL1       -0.2858
     29 C          18.5467   71.9335   -4.3098 C.3     1  UNL1        0.2704
     30 C          17.5043   70.8675   -3.9683 C.3     1  UNL1        0.1967
     31 C          17.5508   69.7660   -5.0317 C.3     1  UNL1        0.1715
     32 C          17.3952   70.4116   -6.4132 C.3     1  UNL1        0.1694
     33 C          18.4480   71.5116   -6.5700 C.3     1  UNL1        0.1761
     34 O          17.7934   70.3090   -2.6855 O.3     1  UNL1       -0.3775
     35 O          16.4860   68.8389   -4.8096 O.3     1  UNL1       -0.3794
     36 O          16.0878   70.9742   -6.5332 O.3     1  UNL1       -0.3794
     37 O          18.2469   72.5155   -5.5762 O.3     1  UNL1       -0.3258
     38 H          17.7603   71.0372   -2.0503 H       1  UNL1        0.2106
     39 H          16.6174   68.4679   -3.9279 H       1  UNL1        0.2105
     40 H          15.4597   70.2486   -6.4223 H       1  UNL1        0.2105
     41 C          18.3235   72.1400   -7.9599 C.3     1  UNL1        0.1693
     42 O          17.8016   71.1736   -8.8736 O.3     1  UNL1       -0.3794
     43 H          17.7381   71.6086   -9.7350 H       1  UNL1        0.2105
@<TRIPOS>BOND
     1    15    16   ar
     2    15    20   ar
     3    15     6    1
     4    16    17   ar
     5    16    21    2
     6    17    18   ar
     7    17    23    1
     8    18    19   ar
     9    18    22    2
    10    19    20   ar
    11     6     7    1
    12     6    11    1
    13     7     8    1
    14     7     9    1
    15     8    13    1
    16     9    10    1
    17     9    12    1
    18    10    11    1
    19    10     5    1
    20    12    14    1
    21     5     4    1
    22     4     1    1
    23     1     2    2
    24     1     3    1
    25     1    24    1
    26    24    25    1
    27    25    26    2
    28    25    27    1
    29    25    28    1
    30    28    29    1
    31    29    30    1
    32    29    37    1
    33    30    31    1
    34    30    34    1
    35    31    32    1
    36    31    35    1
    37    32    33    1
    38    32    36    1
    39    33    41    1
    40    33    37    1
    41    41    42    1
    42    34    38    1
    43    35    39    1
    44    36    40    1
    45    42    43    1
@<TRIPOS>MOLECULE
GDU
 43 45 0 0 0
SMALL
GASTEIGER

@<TRIPOS>ATOM
      1 P          20.5796   71.3565   -1.9785 P.3     1  UNL1        0.2189
      2 O          20.5316   70.0748   -1.2406 O.2     1  UNL1       -0.5170
      3 O          19.2296   72.1882   -1.6978 O.3     1  UNL1       -0.4371
      4 O          21.8493   72.2124   -1.4862 O.3     1  UNL1       -0.3112
      5 C          22.2625   71.6580   -0.2362 C.3     1  UNL1        0.1811
      6 C          22.4889   73.9791    2.5003 C.3     1  UNL1        0.2383
      7 C          22.1623   74.8611    1.2680 C.3     1  UNL1        0.1895
      8 O          21.3995   76.0081    1.6497 O.3     1  UNL1       -0.3779
      9 C          21.3151   73.8989    0.3952 C.3     1  UNL1        0.1713
     10 C          21.6928   72.4971    0.9090 C.3     1  UNL1        0.1764
     11 O          22.6889   72.6673    1.9322 O.3     1  UNL1       -0.3308
     12 O          19.9210   74.1495    0.5843 O.3     1  UNL1       -0.3794
     13 H          21.2308   76.5123    0.8415 H       1  UNL1        0.2106
     14 H          19.7590   75.0594    0.3004 H       1  UNL1        0.2105
     15 N          23.7081   74.4457    3.1626 N.ar    1  UNL1       -0.2551
     16 C          23.9091   74.1671    4.4627 C.ar    1  UNL1        0.3323
     17 N          25.0232   74.5813    5.0945 N.ar    1  UNL1       -0.2743
     18 C          25.9549   75.2942    4.4328 C.ar    1  UNL1        0.2626
     19 C          25.7539   75.6001    3.0645 C.ar    1  UNL1        0.0795
     20 C          24.6297   75.1688    2.4541 C.ar    1  UNL1        0.0869
     21 O          23.0777   73.5245    5.0726 O.2     1  UNL1       -0.2464
     22 O          26.9614   75.6737    5.0050 O.2     1  UNL1       -0.2670
     23 H          25.1539   74.3675    6.0320 H       1  UNL1        0.1734
     24 O          20.7085   71.0619   -3.5562 O.3     1  UNL1       -0.2703
     25 P          19.4527   70.1413   -3.9630 P.3     1  UNL1        0.2208
     26 O          19.7568   68.7271   -3.6520 O.2     1  UNL1       -0.5170
     27 O          18.1547   70.6062   -3.1304 O.3     1  UNL1       -0.4371
     28 O          19.1615   70.2947   -5.5384 O.3     1  UNL1       -0.2858
     29 C          18.6473   71.6119   -5.7389 C.3     1  UNL1        0.2704
     30 C          17.2581   71.5252   -6.3728 C.3     1  UNL1        0.1967
     31 C          17.3639   70.7771   -7.7054 C.3     1  UNL1        0.1715
     32 C          18.4325   71.4595   -8.5669 C.3     1  UNL1        0.1694
     33 C          19.7342   71.5495   -7.7666 C.3     1  UNL1        0.1761
     34 O          16.3752   70.8224   -5.4966 O.3     1  UNL1       -0.3775
     35 O          16.1040   70.8157   -8.3790 O.3     1  UNL1       -0.3794
     36 O          17.9932   72.7711   -8.9230 O.3     1  UNL1       -0.3794
     37 O          19.5258   72.3378   -6.5956 O.3     1  UNL1       -0.3258
     38 H          16.3447   71.3237   -4.6704 H       1  UNL1        0.2106
     39 H          15.4626   70.3880   -7.7977 H       1  UNL1        0.2105
     40 H          17.1707   72.6658   -9.4186 H       1  UNL1        0.2105
     41 C          20.8180   72.1987   -8.6302 C.3     1  UNL1        0.1693
     42 O          21.9991   72.3871   -7.8489 O.3     1  UNL1       -0.3794
     43 H          22.6559   72.7966   -8.4288 H       1  UNL1        0.2105
@<TRIPOS>BOND
     1    15    16   ar
     2    15    20   ar
     3    15     6    1
     4    16    17   ar
     5    16    21    2
     6    17    18   ar
     7    17    23    1
     8    18    19   ar
     9    18    22    2
    10    19    20   ar
    11     6     7    1
    12     6    11    1
    13     7     8    1
    14     7     9    1
    15     8    13    1
    16     9    10    1
    17     9    12    1
    18    10    11    1
    19    10     5    1
    20    12    14    1
    21     5     4    1
    22     4     1    1
    23     1     2    2
    24     1     3    1
    25     1    24    1
    26    24    25    1
    27    25    26    2
    28    25    27    1
    29    25    28    1
    30    28    29    1
    31    29    30    1
    32    29    37    1
    33    30    31    1
    34    30    34    1
    35    31    32    1
    36    31    35    1
    37    32    33    1
    38    32    36    1
    39    33    41    1
    40    33    37    1
    41    41    42    1
    42    34    38    1
    43    35    39    1
    44    36    40    1
    45    42    43    1
@<TRIPOS>MOLECULE
GDU
 43 45 0 0 0
SMALL
GASTEIGER

@<TRIPOS>ATOM
      1 P          19.9963   70.6662   -2.4991 P.3     1  UNL1        0.2189
      2 O          21.1844   70.8316   -3.3655 O.2     1  UNL1       -0.5170
      3 O          19.5504   72.1012   -1.9203 O.3     1  UNL1       -0.4371
      4 O          18.7903   70.0351   -3.3560 O.3     1  UNL1       -0.3112
      5 C          19.1672   70.1270   -4.7308 C.3     1  UNL1        0.1811
      6 C          18.9979   72.9353   -6.9695 C.3     1  UNL1        0.2383
      7 C          18.3596   71.7663   -7.7627 C.3     1  UNL1        0.1895
      8 O          17.3583   72.2472   -8.6623 O.3     1  UNL1       -0.3779
      9 C          17.7248   70.9151   -6.6323 C.3     1  UNL1        0.1713
     10 C          18.4908   71.3428   -5.3667 C.3     1  UNL1        0.1764
     11 O          19.4854   72.3007   -5.7682 O.3     1  UNL1       -0.3308
     12 O          16.3324   71.2106   -6.5064 O.3     1  UNL1       -0.3794
     13 H          17.0027   71.4743   -9.1228 H       1  UNL1        0.2106
     14 H          15.9192   70.9767   -7.3485 H       1  UNL1        0.2105
     15 N          20.1027   73.5304   -7.7233 N.ar    1  UNL1       -0.2551
     16 C          21.0040   72.7346   -8.3255 C.ar    1  UNL1        0.3323
     17 N          22.0271   73.2563   -9.0276 N.ar    1  UNL1       -0.2743
     18 C          22.1705   74.5916   -9.1302 C.ar    1  UNL1        0.2626
     19 C          21.2319   75.4422   -8.4962 C.ar    1  UNL1        0.0795
     20 C          20.2129   74.8926   -7.8019 C.ar    1  UNL1        0.0869
     21 O          20.8875   71.5282   -8.2422 O.2     1  UNL1       -0.2464
     22 O          23.0990   75.0648   -9.7614 O.2     1  UNL1       -0.2670
     23 H          22.6660   72.6670   -9.4594 H       1  UNL1        0.1734
     24 O          20.3581   69.6844   -1.2754 O.3     1  UNL1       -0.2703
     25 P          21.5731   70.3686   -0.4718 P.3     1  UNL1        0.2208
     26 O          21.8900   69.5591    0.7255 O.2     1  UNL1       -0.5170
     27 O          22.8694   70.4472   -1.4244 O.3     1  UNL1       -0.4371
     28 O          21.1499   71.8541   -0.0198 O.3     1  UNL1       -0.2858
     29 C          22.2094   72.3575    0.7949 C.3     1  UNL1        0.2704
     30 C          21.6363   72.8656    2.1188 C.3     1  UNL1        0.1967
     31 C          20.6086   73.9637    1.8285 C.3     1  UNL1        0.1715
     32 C          21.2686   75.0328    0.9504 C.3     1  UNL1        0.1694
     33 C          21.8683   74.3601   -0.2868 C.3     1  UNL1        0.1761
     34 O          21.0045   71.7878    2.8118 O.3     1  UNL1       -0.3775
     35 O          20.1725   74.5500    3.0568 O.3     1  UNL1       -0.3794
     36 O          22.2991   75.6892    1.6901 O.3     1  UNL1       -0.3794
     37 O          22.8670   73.4222    0.1118 O.3     1  UNL1       -0.3258
     38 H          21.6850   71.1186    2.9668 H       1  UNL1        0.2106
     39 H          19.7764   73.8416    3.5799 H       1  UNL1        0.2105
     40 H          21.8776   76.0921    2.4603 H       1  UNL1        0.2105
     41 C          22.5002   75.4236   -1.1877 C.3     1  UNL1        0.1693
     42 O          21.5241   75.9029   -2.1143 O.3     1  UNL1       -0.3794
     43 H          21.9613   76.5699   -2.6613 H       1  UNL1        0.2105
@<TRIPOS>BOND
     1    15    16   ar
     2    15    20   ar
     3    15     6    1
     4    16    17   ar
     5    16    21    2
     6    17    18   ar
     7    17    23    1
     8    18    19   ar
     9    18    22    2
    10    19    20   ar
    11     6     7    1
    12     6    11    1
    13     7     8    1
    14     7     9    1
    15     8    13    1
    16     9    10    1
    17     9    12    1
    18    10    11    1
    19    10     5    1
    20    12    14    1
    21     5     4    1
    22     4     1    1
    23     1     2    2
    24     1     3    1
    25     1    24    1
    26    24    25    1
    27    25    26    2
    28    25    27    1
    29    25    28    1
    30    28    29    1
    31    29    30    1
    32    29    37    1
    33    30    31    1
    34    30    34    1
    35    31    32    1
    36    31    35    1
    37    32    33    1
    38    32    36    1
    39    33    41    1
    40    33    37    1
    41    41    42    1
    42    34    38    1
    43    35    39    1
    44    36    40    1
    45    42    43    1
@<TRIPOS>MOLECULE
GDU
 43 45 0 0 0
SMALL
GASTEIGER

@<TRIPOS>ATOM
      1 P          18.3313   72.1826   -2.7803 P.3     1  UNL1        0.2189
      2 O          17.0684   72.0139   -2.0280 O.2     1  UNL1       -0.5170
      3 O          18.5487   73.7413   -3.1213 O.3     1  UNL1       -0.4371
      4 O          19.5614   71.6513   -1.8906 O.3     1  UNL1       -0.3112
      5 C          20.0841   72.7813   -1.1904 C.3     1  UNL1        0.1811
      6 C          22.6450   72.3655    1.2988 C.3     1  UNL1        0.2383
      7 C          22.0659   70.9421    1.0948 C.3     1  UNL1        0.1895
      8 O          23.0678   69.9472    1.3176 O.3     1  UNL1       -0.3779
      9 C          21.6411   70.9749   -0.3964 C.3     1  UNL1        0.1713
     10 C          21.5053   72.4756   -0.7140 C.3     1  UNL1        0.1764
     11 O          21.7802   73.1990    0.4982 O.3     1  UNL1       -0.3308
     12 O          22.6451   70.3723   -1.2153 O.3     1  UNL1       -0.3794
     13 H          22.6448   69.0888    1.1758 H       1  UNL1        0.2106
     14 H          22.7248   69.4522   -0.9293 H       1  UNL1        0.2105
     15 N          22.5769   72.7553    2.7081 N.ar    1  UNL1       -0.2551
     16 C          21.4743   72.4749    3.4250 C.ar    1  UNL1        0.3323
     17 N          21.3875   72.8192    4.7234 N.ar    1  UNL1       -0.2743
     18 C          22.4061   73.4626    5.3258 C.ar    1  UNL1        0.2626
     19 C          23.5714   73.7696    4.5815 C.ar    1  UNL1        0.0795
     20 C          23.6339   73.4091    3.2821 C.ar    1  UNL1        0.0869
     21 O          20.5476   71.8945    2.8954 O.2     1  UNL1       -0.2464
     22 O          22.3266   73.7789    6.4997 O.2     1  UNL1       -0.2670
     23 H          20.5859   72.6051    5.2267 H       1  UNL1        0.1734
     24 O          18.2553   71.3405   -4.1505 O.3     1  UNL1       -0.2703
     25 P          19.7431   71.3106   -4.7631 P.3     1  UNL1        0.2208
     26 O          20.3750   72.6370   -4.5884 O.2     1  UNL1       -0.5170
     27 O          20.6166   70.1955   -3.9965 O.3     1  UNL1       -0.4371
     28 O          19.6723   70.9511   -6.3302 O.3     1  UNL1       -0.2858
     29 C          18.6782   71.7995   -6.9061 C.3     1  UNL1        0.2704
     30 C          17.8648   71.0077   -7.9311 C.3     1  UNL1        0.1967
     31 C          18.8097   70.4715   -9.0109 C.3     1  UNL1        0.1715
     32 C          19.6158   71.6434   -9.5825 C.3     1  UNL1        0.1694
     33 C          20.2986   72.3863   -8.4315 C.3     1  UNL1        0.1761
     34 O          17.2091   69.9168   -7.2821 O.3     1  UNL1       -0.3775
     35 O          18.0488   69.8558  -10.0522 O.3     1  UNL1       -0.3794
     36 O          18.7398   72.5316  -10.2780 O.3     1  UNL1       -0.3794
     37 O          19.3117   72.9071   -7.5422 O.3     1  UNL1       -0.3258
     38 H          16.6317   70.2997   -6.6077 H       1  UNL1        0.2106
     39 H          17.5507   69.1351   -9.6462 H       1  UNL1        0.2105
     40 H          18.3291   72.0209  -10.9878 H       1  UNL1        0.2105
     41 C          21.1340   73.5382   -8.9946 C.3     1  UNL1        0.1693
     42 O          22.5223   73.2427   -8.8315 O.3     1  UNL1       -0.3794
     43 H          23.0127   73.9910   -9.1988 H       1  UNL1        0.2105
@<TRIPOS>BOND
     1    15    16   ar
     2    15    20   ar
     3    15     6    1
     4    16    17   ar
     5    16    21    2
     6    17    18   ar
     7    17    23    1
     8    18    19   ar
     9    18    22    2
    10    19    20   ar
    11     6     7    1
    12     6    11    1
    13     7     8    1
    14     7     9    1
    15     8    13    1
    16     9    10    1
    17     9    12    1
    18    10    11    1
    19    10     5    1
    20    12    14    1
    21     5     4    1
    22     4     1    1
    23     1     2    2
    24     1     3    1
    25     1    24    1
    26    24    25    1
    27    25    26    2
    28    25    27    1
    29    25    28    1
    30    28    29    1
    31    29    30    1
    32    29    37    1
    33    30    31    1
    34    30    34    1
    35    31    32    1
    36    31    35    1
    37    32    33    1
    38    32    36    1
    39    33    41    1
    40    33    37    1
    41    41    42    1
    42    34    38    1
    43    35    39    1
    44    36    40    1
    45    42    43    1
@<TRIPOS>MOLECULE
GDU
 43 45 0 0 0
SMALL
GASTEIGER

@<TRIPOS>ATOM
      1 P          21.6842   71.1590   -0.7092 P.3     1  UNL1        0.2189
      2 O          21.9864   69.9119   -1.4462 O.2     1  UNL1       -0.5170
      3 O          22.8586   72.2308   -0.9641 O.3     1  UNL1       -0.4371
      4 O          20.2856   71.7624   -1.2256 O.3     1  UNL1       -0.3112
      5 C          20.3976   71.9133   -2.6416 C.3     1  UNL1        0.1811
      6 C          18.0506   71.3028   -5.2961 C.3     1  UNL1        0.2383
      7 C          18.0378   69.9989   -4.4578 C.3     1  UNL1        0.1895
      8 O          16.7545   69.3715   -4.5103 O.3     1  UNL1       -0.3779
      9 C          18.3373   70.5271   -3.0308 C.3     1  UNL1        0.1713
     10 C          19.0030   71.8950   -3.2701 C.3     1  UNL1        0.1764
     11 O          19.1058   72.0810   -4.6924 O.3     1  UNL1       -0.3308
     12 O          17.1253   70.6761   -2.2886 O.3     1  UNL1       -0.3794
     13 H          16.8136   68.5702   -3.9716 H       1  UNL1        0.2106
     14 H          16.7270   69.7976   -2.2235 H       1  UNL1        0.2105
     15 N          18.3595   71.0145   -6.6976 N.ar    1  UNL1       -0.2551
     16 C          17.3601   70.7781   -7.5657 C.ar    1  UNL1        0.3323
     17 N          17.6167   70.5140   -8.8604 N.ar    1  UNL1       -0.2743
     18 C          18.8867   70.4725   -9.3072 C.ar    1  UNL1        0.2626
     19 C          19.9498   70.7138   -8.4029 C.ar    1  UNL1        0.0795
     20 C          19.6642   70.9804   -7.1107 C.ar    1  UNL1        0.0869
     21 O          16.2093   70.8126   -7.1775 O.2     1  UNL1       -0.2464
     22 O          19.1202   70.2288  -10.4779 O.2     1  UNL1       -0.2670
     23 H          16.8829   70.3501   -9.4740 H       1  UNL1        0.1734
     24 O          21.5836   70.8395    0.8657 O.3     1  UNL1       -0.2703
     25 P          21.4983   72.2561    1.6246 P.3     1  UNL1        0.2208
     26 O          20.8183   72.0779    2.9265 O.2     1  UNL1       -0.5170
     27 O          22.9856   72.8237    1.8699 O.3     1  UNL1       -0.4371
     28 O          20.6688   73.3000    0.7233 O.3     1  UNL1       -0.2858
     29 C          21.0452   74.6092    1.1522 C.3     1  UNL1        0.2704
     30 C          19.8018   75.3709    1.6138 C.3     1  UNL1        0.1967
     31 C          18.8048   75.4477    0.4534 C.3     1  UNL1        0.1715
     32 C          19.5178   76.0413   -0.7668 C.3     1  UNL1        0.1694
     33 C          20.7827   75.2269   -1.0492 C.3     1  UNL1        0.1761
     34 O          19.2034   74.6871    2.7164 O.3     1  UNL1       -0.3775
     35 O          17.7032   76.2807    0.8211 O.3     1  UNL1       -0.3794
     36 O          19.8681   77.4003   -0.5012 O.3     1  UNL1       -0.3794
     37 O          21.6637   75.3023    0.0707 O.3     1  UNL1       -0.3258
     38 H          19.8672   74.6560    3.4187 H       1  UNL1        0.2106
     39 H          17.2937   75.8769    1.5967 H       1  UNL1        0.2105
     40 H          19.0439   77.8722   -0.3239 H       1  UNL1        0.2105
     41 C          21.4844   75.7904   -2.2869 C.3     1  UNL1        0.1693
     42 O          20.5099   76.3287   -3.1822 O.3     1  UNL1       -0.3794
     43 H          20.9920   76.6732   -3.9465 H       1  UNL1        0.2105
@<TRIPOS>BOND
     1    15    16   ar
     2    15    20   ar
     3    15     6    1
     4    16    17   ar
     5    16    21    2
     6    17    18   ar
     7    17    23    1
     8    18    19   ar
     9    18    22    2
    10    19    20   ar
    11     6     7    1
    12     6    11    1
    13     7     8    1
    14     7     9    1
    15     8    13    1
    16     9    10    1
    17     9    12    1
    18    10    11    1
    19    10     5    1
    20    12    14    1
    21     5     4    1
    22     4     1    1
    23     1     2    2
    24     1     3    1
    25     1    24    1
    26    24    25    1
    27    25    26    2
    28    25    27    1
    29    25    28    1
    30    28    29    1
    31    29    30    1
    32    29    37    1
    33    30    31    1
    34    30    34    1
    35    31    32    1
    36    31    35    1
    37    32    33    1
    38    32    36    1
    39    33    41    1
    40    33    37    1
    41    41    42    1
    42    34    38    1
    43    35    39    1
    44    36    40    1
    45    42    43    1
@<TRIPOS>MOLECULE
GDU
 43 45 0 0 0
SMALL
GASTEIGER

@<TRIPOS>ATOM
      1 P          22.3521   70.9217   -1.9139 P.3     1  UNL1        0.2189
      2 O          21.6285   69.6324   -1.8547 O.2     1  UNL1       -0.5170
      3 O          23.3280   70.9309   -3.1947 O.3     1  UNL1       -0.4371
      4 O          21.2937   72.1264   -2.0371 O.3     1  UNL1       -0.3112
      5 C          21.9622   73.1979   -2.7046 C.3     1  UNL1        0.1811
      6 C          19.2484   72.9553   -5.0505 C.3     1  UNL1        0.2383
      7 C          18.6741   73.7882   -3.8760 C.3     1  UNL1        0.1895
      8 O          17.6912   74.7158   -4.3414 O.3     1  UNL1       -0.3779
      9 C          19.9335   74.5303   -3.3577 C.3     1  UNL1        0.1713
     10 C          21.1085   73.6818   -3.8781 C.3     1  UNL1        0.1764
     11 O          20.5503   72.5537   -4.5738 O.3     1  UNL1       -0.3308
     12 O          19.9885   75.8544   -3.8923 O.3     1  UNL1       -0.3794
     13 H          17.3752   75.1998   -3.5656 H       1  UNL1        0.2106
     14 H          19.1985   76.3157   -3.5796 H       1  UNL1        0.2105
     15 N          18.4110   71.7836   -5.3126 N.ar    1  UNL1       -0.2551
     16 C          18.1964   70.8853   -4.3352 C.ar    1  UNL1        0.3323
     17 N          17.4277   69.8012   -4.5490 N.ar    1  UNL1       -0.2743
     18 C          16.8662   69.5930   -5.7555 C.ar    1  UNL1        0.2626
     19 C          17.0883   70.5278   -6.7962 C.ar    1  UNL1        0.0795
     20 C          17.8599   71.6086   -6.5535 C.ar    1  UNL1        0.0869
     21 O          18.6959   71.0598   -3.2416 O.2     1  UNL1       -0.2464
     22 O          16.1741   68.6095   -5.9514 O.2     1  UNL1       -0.2670
     23 H          17.2800   69.1653   -3.8310 H       1  UNL1        0.1734
     24 O          23.2255   71.1078   -0.5741 O.3     1  UNL1       -0.2703
     25 P          22.3368   70.5458    0.6441 P.3     1  UNL1        0.2208
     26 O          21.4756   69.4447    0.1592 O.2     1  UNL1       -0.5170
     27 O          23.3066   69.9957    1.8065 O.3     1  UNL1       -0.4371
     28 O          21.4172   71.7296    1.2298 O.3     1  UNL1       -0.2858
     29 C          22.3000   72.7015    1.7917 C.3     1  UNL1        0.2704
     30 C          21.9131   72.9585    3.2490 C.3     1  UNL1        0.1967
     31 C          20.4634   73.4506    3.3006 C.3     1  UNL1        0.1715
     32 C          20.3219   74.6570    2.3657 C.3     1  UNL1        0.1694
     33 C          20.8280   74.2702    0.9738 C.3     1  UNL1        0.1761
     34 O          22.0360   71.7478    3.9975 O.3     1  UNL1       -0.3775
     35 O          20.1341   73.8347    4.6372 O.3     1  UNL1       -0.3794
     36 O          21.0917   75.7478    2.8732 O.3     1  UNL1       -0.3794
     37 O          22.2075   73.9127    1.0455 O.3     1  UNL1       -0.3258
     38 H          22.9603   71.4716    3.9314 H       1  UNL1        0.2106
     39 H          20.2483   73.0512    5.1898 H       1  UNL1        0.2105
     40 H          20.7426   75.9525    3.7504 H       1  UNL1        0.2105
     41 C          20.6592   75.4577    0.0234 C.3     1  UNL1        0.1693
     42 O          19.4787   76.1824    0.3729 O.3     1  UNL1       -0.3794
     43 H          19.4096   76.9209   -0.2477 H       1  UNL1        0.2105
@<TRIPOS>BOND
     1    15    16   ar
     2    15    20   ar
     3    15     6    1
     4    16    17   ar
     5    16    21    2
     6    17    18   ar
     7    17    23    1
     8    18    19   ar
     9    18    22    2
    10    19    20   ar
    11     6     7    1
    12     6    11    1
    13     7     8    1
    14     7     9    1
    15     8    13    1
    16     9    10    1
    17     9    12    1
    18    10    11    1
    19    10     5    1
    20    12    14    1
    21     5     4    1
    22     4     1    1
    23     1     2    2
    24     1     3    1
    25     1    24    1
    26    24    25    1
    27    25    26    2
    28    25    27    1
    29    25    28    1
    30    28    29    1
    31    29    30    1
    32    29    37    1
    33    30    31    1
    34    30    34    1
    35    31    32    1
    36    31    35    1
    37    32    33    1
    38    32    36    1
    39    33    41    1
    40    33    37    1
    41    41    42    1
    42    34    38    1
    43    35    39    1
    44    36    40    1
    45    42    43    1
@<TRIPOS>MOLECULE
GDU
 43 45 0 0 0
SMALL
GASTEIGER

@<TRIPOS>ATOM
      1 P          17.8888   71.0444   -3.3844 P.3     1  UNL1        0.2189
      2 O          16.7127   71.1777   -2.4965 O.2     1  UNL1       -0.5170
      3 O          18.0217   72.3621   -4.3004 O.3     1  UNL1       -0.4371
      4 O          19.2173   70.8736   -2.4940 O.3     1  UNL1       -0.3112
      5 C          19.6022   72.1823   -2.0699 C.3     1  UNL1        0.1811
      6 C          22.5934   72.4339   -0.0907 C.3     1  UNL1        0.2383
      7 C          22.3364   70.9103   -0.2155 C.3     1  UNL1        0.1895
      8 O          23.5664   70.1825   -0.1962 O.3     1  UNL1       -0.3779
      9 C          21.6551   70.8085   -1.6050 C.3     1  UNL1        0.1713
     10 C          21.1172   72.2282   -1.8631 C.3     1  UNL1        0.1764
     11 O          21.4284   73.0236   -0.7060 O.3     1  UNL1       -0.3308
     12 O          22.6085   70.4383   -2.6029 O.3     1  UNL1       -0.3794
     13 H          23.3376   69.2460   -0.2767 H       1  UNL1        0.2106
     14 H          22.9512   69.5692   -2.3542 H       1  UNL1        0.2105
     15 N          22.6900   72.8295    1.3153 N.ar    1  UNL1       -0.2551
     16 C          22.1447   72.0506    2.2662 C.ar    1  UNL1        0.3323
     17 N          22.2226   72.3896    3.5665 N.ar    1  UNL1       -0.2743
     18 C          22.8432   73.5263    3.9369 C.ar    1  UNL1        0.2626
     19 C          23.4173   74.3594    2.9457 C.ar    1  UNL1        0.0795
     20 C          23.3284   73.9936    1.6492 C.ar    1  UNL1        0.0869
     21 O          21.5821   71.0220    1.9475 O.2     1  UNL1       -0.2464
     22 O          22.9101   73.8364    5.1132 O.2     1  UNL1       -0.2670
     23 H          21.8271   71.8134    4.2398 H       1  UNL1        0.1734
     24 O          17.7040   69.7530   -4.3281 O.3     1  UNL1       -0.2703
     25 P          17.0798   70.2751   -5.7165 P.3     1  UNL1        0.2208
     26 O          16.3872   69.1584   -6.3965 O.2     1  UNL1       -0.5170
     27 O          16.0275   71.4579   -5.4204 O.3     1  UNL1       -0.4371
     28 O          18.2586   70.8311   -6.6606 O.3     1  UNL1       -0.2858
     29 C          17.8633   70.5793   -8.0098 C.3     1  UNL1        0.2704
     30 C          19.0907   70.6426   -8.9201 C.3     1  UNL1        0.1967
     31 C          19.7339   72.0271   -8.7944 C.3     1  UNL1        0.1715
     32 C          18.6644   73.0908   -9.0667 C.3     1  UNL1        0.1694
     33 C          17.4693   72.8428   -8.1430 C.3     1  UNL1        0.1761
     34 O          20.0296   69.6396   -8.5281 O.3     1  UNL1       -0.3775
     35 O          20.7928   72.1528   -9.7461 O.3     1  UNL1       -0.3794
     36 O          18.2458   73.0096  -10.4299 O.3     1  UNL1       -0.3794
     37 O          16.9095   71.5587   -8.4144 O.3     1  UNL1       -0.3258
     38 H          19.5808   68.7877   -8.6159 H       1  UNL1        0.2106
     39 H          21.4337   71.4592   -9.5449 H       1  UNL1        0.2105
     40 H          19.0293   73.1660  -10.9730 H       1  UNL1        0.2105
     41 C          16.4094   73.9204   -8.3828 C.3     1  UNL1        0.1693
     42 O          15.4635   73.4511   -9.3451 O.3     1  UNL1       -0.3794
     43 H          14.8142   74.1574   -9.4668 H       1  UNL1        0.2105
@<TRIPOS>BOND
     1    15    16   ar
     2    15    20   ar
     3    15     6    1
     4    16    17   ar
     5    16    21    2
     6    17    18   ar
     7    17    23    1
     8    18    19   ar
     9    18    22    2
    10    19    20   ar
    11     6     7    1
    12     6    11    1
    13     7     8    1
    14     7     9    1
    15     8    13    1
    16     9    10    1
    17     9    12    1
    18    10    11    1
    19    10     5    1
    20    12    14    1
    21     5     4    1
    22     4     1    1
    23     1     2    2
    24     1     3    1
    25     1    24    1
    26    24    25    1
    27    25    26    2
    28    25    27    1
    29    25    28    1
    30    28    29    1
    31    29    30    1
    32    29    37    1
    33    30    31    1
    34    30    34    1
    35    31    32    1
    36    31    35    1
    37    32    33    1
    38    32    36    1
    39    33    41    1
    40    33    37    1
    41    41    42    1
    42    34    38    1
    43    35    39    1
    44    36    40    1
    45    42    43    1
@<TRIPOS>MOLECULE
GDU
 43 45 0 0 0
SMALL
GASTEIGER

@<TRIPOS>ATOM
      1 P          21.9908   70.3011   -0.3594 P.3     1  UNL1        0.2189
      2 O          21.1888   69.6154   -1.3967 O.2     1  UNL1       -0.5170
      3 O          22.7979   69.2079    0.5046 O.3     1  UNL1       -0.4371
      4 O          23.0325   71.3050   -1.0623 O.3     1  UNL1       -0.3112
      5 C          22.9361   71.0822   -2.4700 C.3     1  UNL1        0.1811
      6 C          21.8599   73.2141   -5.1578 C.3     1  UNL1        0.2383
      7 C          20.7131   73.2906   -4.1175 C.3     1  UNL1        0.1895
      8 O          20.0675   74.5650   -4.1630 O.3     1  UNL1       -0.3779
      9 C          21.4752   73.1040   -2.7797 C.3     1  UNL1        0.1713
     10 C          22.7938   72.4235   -3.1918 C.3     1  UNL1        0.1764
     11 O          22.7425   72.2103   -4.6131 O.3     1  UNL1       -0.3308
     12 O          21.7279   74.3704   -2.1679 O.3     1  UNL1       -0.3794
     13 H          19.3676   74.5470   -3.4954 H       1  UNL1        0.2106
     14 H          20.8668   74.7714   -1.9881 H       1  UNL1        0.2105
     15 N          21.3474   72.7965   -6.4638 N.ar    1  UNL1       -0.2551
     16 C          21.9891   73.1738   -7.5837 C.ar    1  UNL1        0.3323
     17 N          21.5408   72.8004   -8.7967 N.ar    1  UNL1       -0.2743
     18 C          20.4301   72.0468   -8.9088 C.ar    1  UNL1        0.2626
     19 C          19.7405   71.6468   -7.7380 C.ar    1  UNL1        0.0795
     20 C          20.2142   72.0316   -6.5339 C.ar    1  UNL1        0.0869
     21 O          22.9927   73.8533   -7.4984 O.2     1  UNL1       -0.2464
     22 O          20.0209   71.7123  -10.0066 O.2     1  UNL1       -0.2670
     23 H          22.0189   73.0782   -9.5942 H       1  UNL1        0.1734
     24 O          21.0123   71.1339    0.6108 O.3     1  UNL1       -0.2703
     25 P          21.9462   72.0939    1.5031 P.3     1  UNL1        0.2208
     26 O          22.8975   71.2709    2.2822 O.2     1  UNL1       -0.5170
     27 O          22.7648   73.0921    0.5399 O.3     1  UNL1       -0.4371
     28 O          21.0292   72.9526    2.5090 O.3     1  UNL1       -0.2858
     29 C          21.9029   73.8308    3.2197 C.3     1  UNL1        0.2704
     30 C          21.6785   73.6649    4.7235 C.3     1  UNL1        0.1967
     31 C          20.2147   73.9798    5.0470 C.3     1  UNL1        0.1715
     32 C          19.8760   75.3654    4.4859 C.3     1  UNL1        0.1694
     33 C          20.2355   75.4016    2.9985 C.3     1  UNL1        0.1761
     34 O          21.9765   72.3212    5.1066 O.3     1  UNL1       -0.3775
     35 O          20.0238   73.9729    6.4633 O.3     1  UNL1       -0.3794
     36 O          20.6228   76.3606    5.1872 O.3     1  UNL1       -0.3794
     37 O          21.6353   75.1775    2.8360 O.3     1  UNL1       -0.3258
     38 H          22.9031   72.1651    4.8786 H       1  UNL1        0.2106
     39 H          20.2592   73.0892    6.7731 H       1  UNL1        0.2105
     40 H          20.3692   76.2972    6.1173 H       1  UNL1        0.2105
     41 C          19.8693   76.7703    2.4201 C.3     1  UNL1        0.1693
     42 O          20.9752   77.6620    2.5718 O.3     1  UNL1       -0.3794
     43 H          20.7043   78.5105    2.1951 H       1  UNL1        0.2105
@<TRIPOS>BOND
     1    15    16   ar
     2    15    20   ar
     3    15     6    1
     4    16    17   ar
     5    16    21    2
     6    17    18   ar
     7    17    23    1
     8    18    19   ar
     9    18    22    2
    10    19    20   ar
    11     6     7    1
    12     6    11    1
    13     7     8    1
    14     7     9    1
    15     8    13    1
    16     9    10    1
    17     9    12    1
    18    10    11    1
    19    10     5    1
    20    12    14    1
    21     5     4    1
    22     4     1    1
    23     1     2    2
    24     1     3    1
    25     1    24    1
    26    24    25    1
    27    25    26    2
    28    25    27    1
    29    25    28    1
    30    28    29    1
    31    29    30    1
    32    29    37    1
    33    30    31    1
    34    30    34    1
    35    31    32    1
    36    31    35    1
    37    32    33    1
    38    32    36    1
    39    33    41    1
    40    33    37    1
    41    41    42    1
    42    34    38    1
    43    35    39    1
    44    36    40    1
    45    42    43    1
