@<TRIPOS>MOLECULE
UDP-glaA
 43 45 0 0 0
SMALL
GASTEIGER

@<TRIPOS>ATOM
      1 P          22.3361   71.6685   -3.0512 P.3     1  UNL1        0.2189
      2 O          22.0375   73.2382   -2.7976 O.3     1  UNL1       -0.4371
      3 O          23.7509   71.3473   -3.4349 O.2     1  UNL1       -0.5170
      4 O          21.2011   71.2226   -4.1136 O.3     1  UNL1       -0.3112
      5 C          20.2892   70.2028   -3.7425 C.3     1  UNL1        0.1811
      6 O          18.5949   71.5079   -4.8381 O.3     1  UNL1       -0.3308
      7 O          16.6868   70.3856   -2.8155 O.3     1  UNL1       -0.3794
      8 O          16.1764   68.8673   -5.0222 O.3     1  UNL1       -0.3779
      9 C          17.8018   69.7596   -3.4499 C.3     1  UNL1        0.1713
     10 C          17.4676   69.4243   -4.8881 C.3     1  UNL1        0.1895
     11 C          18.8974   70.8050   -3.6127 C.3     1  UNL1        0.1764
     12 C          17.5927   70.7785   -5.5653 C.3     1  UNL1        0.2383
     13 H          16.9600   70.6168   -1.9113 H       1  UNL1        0.2105
     14 H          16.1455   68.0645   -4.4739 H       1  UNL1        0.2106
     15 O          15.8333   70.2561   -7.7117 O.2     1  UNL1       -0.2464
     16 O          19.2602   70.3805  -10.7906 O.2     1  UNL1       -0.2670
     17 N          17.9978   70.6697   -6.9377 N.ar    1  UNL1       -0.2551
     18 N          17.5410   70.3179   -9.2434 N.ar    1  UNL1       -0.2743
     19 C          17.0353   70.4042   -7.9396 C.ar    1  UNL1        0.3323
     20 C          19.3366   70.8255   -7.2796 C.ar    1  UNL1        0.0869
     21 C          19.8029   70.7409   -8.5275 C.ar    1  UNL1        0.0795
     22 C          18.8634   70.4651   -9.6324 C.ar    1  UNL1        0.2626
     23 H          16.8671   70.1270   -9.9800 H       1  UNL1        0.1734
     24 O          21.8378   70.9782   -1.6763 O.3     1  UNL1       -0.2703
     25 P          21.1821   71.6190   -0.3451 P.3     1  UNL1        0.2208
     26 O          21.1306   70.3700    0.6813 O.3     1  UNL1       -0.4371
     27 O          19.8576   72.2897   -0.5725 O.2     1  UNL1       -0.5170
     28 O          22.3272   72.5886    0.2486 O.3     1  UNL1       -0.2858
     29 O          23.4486   71.8239    2.1869 O.3     1  UNL1       -0.3226
     30 O          24.6353   75.8037    2.0072 O.3     1  UNL1       -0.3794
     31 O          21.8806   75.0509    1.4151 O.3     1  UNL1       -0.3775
     32 O          25.3100   73.5752    3.4933 O.3     1  UNL1       -0.3792
     33 C          24.2480   74.5152    1.5380 C.3     1  UNL1        0.1718
     34 C          22.8313   74.1767    2.0142 C.3     1  UNL1        0.1968
     35 C          25.2407   73.4765    2.0670 C.3     1  UNL1        0.1723
     36 C          22.4713   72.7281    1.6614 C.3     1  UNL1        0.2706
     37 C          24.7639   72.0744    1.6941 C.3     1  UNL1        0.1830
     38 H          25.5367   75.9745    1.6849 H       1  UNL1        0.2105
     39 H          21.0007   74.7930    1.7380 H       1  UNL1        0.2106
     40 H          24.4962   73.1986    3.8689 H       1  UNL1        0.2106
     41 O          24.9217   69.8954    2.5489 O.co2   1  UNL1       -0.5466
     42 O          26.8263   71.1483    2.5418 O.co2   1  UNL1       -0.5466
     43 C          25.6345   71.0208    2.3015 C.2     1  UNL1        0.0799
@<TRIPOS>UNITY_ATOM_ATTR
41 1
charge -1
@<TRIPOS>BOND
     1     1     4    1
     2     1    24    1
     3     1     2    1
     4     1     3    2
     5    25    28    1
     6    25    24    1
     7    25    26    1
     8    25    27    2
     9     6    11    1
    10     6    12    1
    11    29    36    1
    12    29    37    1
    13     7     9    1
    14     7    13    1
    15     8    10    1
    16     8    14    1
    17     4     5    1
    18    28    36    1
    19    30    33    1
    20    30    38    1
    21    31    34    1
    22    31    39    1
    23    32    35    1
    24    32    40    1
    25    41    43   ar
    26    15    19    2
    27    42    43   ar
    28    16    22    2
    29    17    12    1
    30    17    19   ar
    31    17    20   ar
    32    18    19   ar
    33    18    22   ar
    34    18    23    1
    35     9    10    1
    36     9    11    1
    37    10    12    1
    38    11     5    1
    39    33    34    1
    40    33    35    1
    41    34    36    1
    42    35    37    1
    43    37    43    1
    44    20    21   ar
    45    21    22   ar
@<TRIPOS>MOLECULE
UDP-glaA
 43 45 0 0 0
SMALL
GASTEIGER

@<TRIPOS>ATOM
      1 P          22.4523   71.3800   -2.8488 P.3     1  UNL1        0.2189
      2 O          22.3261   72.9832   -2.6726 O.3     1  UNL1       -0.4371
      3 O          23.8455   70.8777   -3.0916 O.2     1  UNL1       -0.5170
      4 O          21.3682   71.0274   -3.9960 O.3     1  UNL1       -0.3112
      5 C          20.3889   70.0399   -3.7220 C.3     1  UNL1        0.1811
      6 O          18.7439   71.4595   -4.7482 O.3     1  UNL1       -0.3308
      7 O          16.8280   70.4084   -2.6949 O.3     1  UNL1       -0.3794
      8 O          16.1747   68.9639   -4.9135 O.3     1  UNL1       -0.3779
      9 C          17.8887   69.7326   -3.3701 C.3     1  UNL1        0.1713
     10 C          17.4987   69.4443   -4.8045 C.3     1  UNL1        0.1895
     11 C          19.0375   70.7173   -3.5440 C.3     1  UNL1        0.1764
     12 C          17.6832   70.8019   -5.4609 C.3     1  UNL1        0.2383
     13 H          17.1374   70.6064   -1.7945 H       1  UNL1        0.2105
     14 H          16.1124   68.1537   -4.3788 H       1  UNL1        0.2106
     15 O          15.8367   70.4851   -7.5740 O.2     1  UNL1       -0.2464
     16 O          19.1893   70.4071  -10.7352 O.2     1  UNL1       -0.2670
     17 N          18.0457   70.6967   -6.8454 N.ar    1  UNL1       -0.2551
     18 N          17.5074   70.4459   -9.1467 N.ar    1  UNL1       -0.2743
     19 C          17.0412   70.5389   -7.8287 C.ar    1  UNL1        0.3323
     20 C          19.3844   70.7500   -7.2173 C.ar    1  UNL1        0.0869
     21 C          19.8128   70.6604   -8.4784 C.ar    1  UNL1        0.0795
     22 C          18.8281   70.4932   -9.5655 C.ar    1  UNL1        0.2626
     23 H          16.8029   70.3315   -9.8704 H       1  UNL1        0.1734
     24 O          21.7562   70.8117   -1.5044 O.3     1  UNL1       -0.2703
     25 P          22.0916   71.0730    0.0551 P.3     1  UNL1        0.2208
     26 O          23.6901   71.3200    0.0544 O.3     1  UNL1       -0.4371
     27 O          21.6339   69.9780    0.9755 O.2     1  UNL1       -0.5170
     28 O          21.4547   72.5211    0.3733 O.3     1  UNL1       -0.2858
     29 O          21.7623   72.7912    2.7039 O.3     1  UNL1       -0.3226
     30 O          20.1801   76.4737    1.6016 O.3     1  UNL1       -0.3794
     31 O          19.1289   74.0065    0.4554 O.3     1  UNL1       -0.3775
     32 O          21.2996   75.3713    3.8735 O.3     1  UNL1       -0.3792
     33 C          20.9311   75.2681    1.4884 C.3     1  UNL1        0.1718
     34 C          20.0044   74.0509    1.5772 C.3     1  UNL1        0.1968
     35 C          21.9663   75.2218    2.6157 C.3     1  UNL1        0.1723
     36 C          20.8177   72.7516    1.6292 C.3     1  UNL1        0.2706
     37 C          22.6848   73.8744    2.5975 C.3     1  UNL1        0.1830
     38 H          20.8058   77.2157    1.5427 H       1  UNL1        0.2105
     39 H          18.5701   73.2169    0.5504 H       1  UNL1        0.2106
     40 H          20.8319   74.5432    4.0755 H       1  UNL1        0.2106
     41 O          22.9308   73.3994    4.8817 O.co2   1  UNL1       -0.5466
     42 O          24.8253   73.8946    3.7145 O.co2   1  UNL1       -0.5466
     43 C          23.6143   73.7342    3.7608 C.2     1  UNL1        0.0799
@<TRIPOS>UNITY_ATOM_ATTR
41 1
charge -1
@<TRIPOS>BOND
     1     1     4    1
     2     1    24    1
     3     1     2    1
     4     1     3    2
     5    25    28    1
     6    25    24    1
     7    25    26    1
     8    25    27    2
     9     6    11    1
    10     6    12    1
    11    29    36    1
    12    29    37    1
    13     7     9    1
    14     7    13    1
    15     8    10    1
    16     8    14    1
    17     4     5    1
    18    28    36    1
    19    30    33    1
    20    30    38    1
    21    31    34    1
    22    31    39    1
    23    32    35    1
    24    32    40    1
    25    41    43   ar
    26    15    19    2
    27    42    43   ar
    28    16    22    2
    29    17    12    1
    30    17    19   ar
    31    17    20   ar
    32    18    19   ar
    33    18    22   ar
    34    18    23    1
    35     9    10    1
    36     9    11    1
    37    10    12    1
    38    11     5    1
    39    33    34    1
    40    33    35    1
    41    34    36    1
    42    35    37    1
    43    37    43    1
    44    20    21   ar
    45    21    22   ar
@<TRIPOS>MOLECULE
UDP-glaA
 43 45 0 0 0
SMALL
GASTEIGER

@<TRIPOS>ATOM
      1 P          23.0347   71.5214   -2.6433 P.3     1  UNL1        0.2189
      2 O          23.1535   73.0893   -2.2629 O.3     1  UNL1       -0.4371
      3 O          24.2920   70.9037   -3.1819 O.2     1  UNL1       -0.5170
      4 O          21.7451   71.4531   -3.6168 O.3     1  UNL1       -0.3112
      5 C          21.5939   72.4513   -4.6118 C.3     1  UNL1        0.1811
      6 O          20.6020   70.5933   -5.7687 O.3     1  UNL1       -0.3308
      7 O          20.9781   72.1946   -8.2759 O.3     1  UNL1       -0.3794
      8 O          18.3331   72.5633   -7.7249 O.3     1  UNL1       -0.3779
      9 C          20.6403   72.6394   -6.9622 C.3     1  UNL1        0.1713
     10 C          19.2013   72.2922   -6.6440 C.3     1  UNL1        0.1895
     11 C          21.4039   71.7790   -5.9641 C.3     1  UNL1        0.1764
     12 C          19.2965   70.8090   -6.3293 C.3     1  UNL1        0.2383
     13 H          21.9169   72.4030   -8.4199 H       1  UNL1        0.2105
     14 H          18.4123   73.5101   -7.9336 H       1  UNL1        0.2106
     15 O          16.7078   69.9165   -7.0202 O.2     1  UNL1       -0.2464
     16 O          15.5762   69.2081   -2.6093 O.2     1  UNL1       -0.2670
     17 N          18.3054   70.3849   -5.3821 N.ar    1  UNL1       -0.2551
     18 N          16.1458   69.5648   -4.8232 N.ar    1  UNL1       -0.2743
     19 C          17.0353   69.9555   -5.8328 C.ar    1  UNL1        0.3323
     20 C          18.5961   70.3971   -4.0224 C.ar    1  UNL1        0.0869
     21 C          17.7374   70.0210   -3.0721 C.ar    1  UNL1        0.0795
     22 C          16.3892   69.5600   -3.4585 C.ar    1  UNL1        0.2626
     23 H          15.2264   69.2529   -5.1240 H       1  UNL1        0.1734
     24 O          22.4910   70.8563   -1.2732 O.3     1  UNL1       -0.2703
     25 P          21.4208   71.3916   -0.1866 P.3     1  UNL1        0.2208
     26 O          21.4467   70.2463    0.9552 O.3     1  UNL1       -0.4371
     27 O          20.0579   71.6732   -0.7514 O.2     1  UNL1       -0.5170
     28 O          22.1354   72.6665    0.4974 O.3     1  UNL1       -0.2858
     29 O          23.3524   71.7773    2.3215 O.3     1  UNL1       -0.3226
     30 O          24.4228   75.7923    2.4348 O.3     1  UNL1       -0.3794
     31 O          21.6684   75.0083    1.8833 O.3     1  UNL1       -0.3775
     32 O          25.2156   73.4692    3.7016 O.3     1  UNL1       -0.3792
     33 C          24.0524   74.5363    1.8731 C.3     1  UNL1        0.1718
     34 C          22.6653   74.1165    2.3709 C.3     1  UNL1        0.1968
     35 C          25.0930   73.4876    2.2756 C.3     1  UNL1        0.1723
     36 C          22.3311   72.6921    1.9106 C.3     1  UNL1        0.2706
     37 C          24.6401   72.1077    1.8035 C.3     1  UNL1        0.1830
     38 H          25.3059   76.0166    2.0951 H       1  UNL1        0.2105
     39 H          20.8092   74.6979    2.2155 H       1  UNL1        0.2106
     40 H          24.4276   73.0381    4.0738 H       1  UNL1        0.2106
     41 O          24.8894   69.8721    2.4696 O.co2   1  UNL1       -0.5466
     42 O          26.7593   71.1761    2.4895 O.co2   1  UNL1       -0.5466
     43 C          25.5620   71.0340    2.2872 C.2     1  UNL1        0.0799
@<TRIPOS>UNITY_ATOM_ATTR
41 1
charge -1
@<TRIPOS>BOND
     1     1     4    1
     2     1    24    1
     3     1     2    1
     4     1     3    2
     5    25    28    1
     6    25    24    1
     7    25    26    1
     8    25    27    2
     9     6    11    1
    10     6    12    1
    11    29    36    1
    12    29    37    1
    13     7     9    1
    14     7    13    1
    15     8    10    1
    16     8    14    1
    17     4     5    1
    18    28    36    1
    19    30    33    1
    20    30    38    1
    21    31    34    1
    22    31    39    1
    23    32    35    1
    24    32    40    1
    25    41    43   ar
    26    15    19    2
    27    42    43   ar
    28    16    22    2
    29    17    12    1
    30    17    19   ar
    31    17    20   ar
    32    18    19   ar
    33    18    22   ar
    34    18    23    1
    35     9    10    1
    36     9    11    1
    37    10    12    1
    38    11     5    1
    39    33    34    1
    40    33    35    1
    41    34    36    1
    42    35    37    1
    43    37    43    1
    44    20    21   ar
    45    21    22   ar
@<TRIPOS>MOLECULE
UDP-glaA
 43 45 0 0 0
SMALL
GASTEIGER

@<TRIPOS>ATOM
      1 P          21.4641   72.0440   -2.3336 P.3     1  UNL1        0.2189
      2 O          22.4285   73.1198   -3.0616 O.3     1  UNL1       -0.4371
      3 O          21.6975   70.6153   -2.7291 O.2     1  UNL1       -0.5170
      4 O          19.9740   72.6129   -2.6008 O.3     1  UNL1       -0.3112
      5 C          19.4423   72.5301   -3.9121 C.3     1  UNL1        0.1811
      6 O          17.4326   72.1165   -5.1630 O.3     1  UNL1       -0.3308
      7 O          16.5285   70.4871   -2.8137 O.3     1  UNL1       -0.3794
      8 O          17.3686   68.5804   -4.5729 O.3     1  UNL1       -0.3779
      9 C          17.8391   70.6343   -3.3601 C.3     1  UNL1        0.1713
     10 C          17.9572   69.8618   -4.6570 C.3     1  UNL1        0.1895
     11 C          17.9923   72.0743   -3.8317 C.3     1  UNL1        0.1764
     12 C          17.2348   70.7734   -5.6343 C.3     1  UNL1        0.2383
     13 H          16.4882   71.0290   -2.0073 H       1  UNL1        0.2105
     14 H          17.8141   68.1003   -3.8538 H       1  UNL1        0.2106
     15 O          15.6398   70.4411   -7.9411 O.2     1  UNL1       -0.2464
     16 O          19.3278   70.3699  -10.7038 O.2     1  UNL1       -0.2670
     17 N          17.7516   70.6658   -6.9688 N.ar    1  UNL1       -0.2551
     18 N          17.4774   70.4054   -9.3152 N.ar    1  UNL1       -0.2743
     19 C          16.8651   70.5001   -8.0585 C.ar    1  UNL1        0.3323
     20 C          19.1235   70.7244   -7.1876 C.ar    1  UNL1        0.0869
     21 C          19.6917   70.6331   -8.3920 C.ar    1  UNL1        0.0795
     22 C          18.8366   70.4579   -9.5826 C.ar    1  UNL1        0.2626
     23 H          16.8595   70.2853  -10.1133 H       1  UNL1        0.1734
     24 O          21.6952   72.3545   -0.7635 O.3     1  UNL1       -0.2703
     25 P          22.3951   71.4764    0.3992 P.3     1  UNL1        0.2208
     26 O          23.7857   71.0043   -0.2786 O.3     1  UNL1       -0.4371
     27 O          21.5451   70.3520    0.9179 O.2     1  UNL1       -0.5170
     28 O          22.8313   72.5536    1.5187 O.3     1  UNL1       -0.2858
     29 O          24.4436   72.5479    3.2507 O.3     1  UNL1       -0.3226
     30 O          21.2619   74.5463    5.0291 O.3     1  UNL1       -0.3794
     31 O          20.7905   72.2113    3.3465 O.3     1  UNL1       -0.3775
     32 O          23.8993   74.0163    5.6561 O.3     1  UNL1       -0.3792
     33 C          22.1469   74.1201    3.9969 C.3     1  UNL1        0.1718
     34 C          22.0741   72.5992    3.8247 C.3     1  UNL1        0.1968
     35 C          23.5735   74.5382    4.3637 C.3     1  UNL1        0.1723
     36 C          23.1437   72.1122    2.8392 C.3     1  UNL1        0.2706
     37 C          24.5543   73.9675    3.3418 C.3     1  UNL1        0.1830
     38 H          21.3428   75.5124    5.1045 H       1  UNL1        0.2105
     39 H          20.7953   71.2446    3.2444 H       1  UNL1        0.2106
     40 H          24.0481   73.0591    5.5742 H       1  UNL1        0.2106
     41 O          26.7769   73.2166    3.3614 O.co2   1  UNL1       -0.5466
     42 O          26.3599   75.2505    4.3028 O.co2   1  UNL1       -0.5466
     43 C          25.9720   74.2417    3.7316 C.2     1  UNL1        0.0799
@<TRIPOS>UNITY_ATOM_ATTR
41 1
charge -1
@<TRIPOS>BOND
     1     1     4    1
     2     1    24    1
     3     1     2    1
     4     1     3    2
     5    25    28    1
     6    25    24    1
     7    25    26    1
     8    25    27    2
     9     6    11    1
    10     6    12    1
    11    29    36    1
    12    29    37    1
    13     7     9    1
    14     7    13    1
    15     8    10    1
    16     8    14    1
    17     4     5    1
    18    28    36    1
    19    30    33    1
    20    30    38    1
    21    31    34    1
    22    31    39    1
    23    32    35    1
    24    32    40    1
    25    41    43   ar
    26    15    19    2
    27    42    43   ar
    28    16    22    2
    29    17    12    1
    30    17    19   ar
    31    17    20   ar
    32    18    19   ar
    33    18    22   ar
    34    18    23    1
    35     9    10    1
    36     9    11    1
    37    10    12    1
    38    11     5    1
    39    33    34    1
    40    33    35    1
    41    34    36    1
    42    35    37    1
    43    37    43    1
    44    20    21   ar
    45    21    22   ar
@<TRIPOS>MOLECULE
UDP-glaA
 43 45 0 0 0
SMALL
GASTEIGER

@<TRIPOS>ATOM
      1 P          20.5808   71.7962   -2.2874 P.3     1  UNL1        0.2189
      2 O          20.2634   70.6754   -1.1646 O.3     1  UNL1       -0.4371
      3 O          19.9931   73.1498   -2.0143 O.2     1  UNL1       -0.5170
      4 O          20.1255   71.0988   -3.6737 O.3     1  UNL1       -0.3112
      5 C          19.2738   69.9673   -3.6151 C.3     1  UNL1        0.1811
      6 O          17.6772   71.1907   -4.9298 O.3     1  UNL1       -0.3308
      7 O          15.5643   69.7548   -3.3598 O.3     1  UNL1       -0.3794
      8 O          15.6133   68.3628   -5.7041 O.3     1  UNL1       -0.3779
      9 C          16.8327   69.2806   -3.8115 C.3     1  UNL1        0.1713
     10 C          16.7961   69.0230   -5.3031 C.3     1  UNL1        0.1895
     11 C          17.8269   70.4299   -3.7108 C.3     1  UNL1        0.1764
     12 C          16.9006   70.4290   -5.8690 C.3     1  UNL1        0.2383
     13 H          15.6469   69.9427   -2.4093 H       1  UNL1        0.2105
     14 H          15.5676   67.5224   -5.2165 H       1  UNL1        0.2106
     15 O          15.5518   70.5835   -8.3454 O.2     1  UNL1       -0.2464
     16 O          19.5069   70.5335  -10.7104 O.2     1  UNL1       -0.2670
     17 N          17.5527   70.4585   -7.1470 N.ar    1  UNL1       -0.2551
     18 N          17.5222   70.5580   -9.5214 N.ar    1  UNL1       -0.2743
     19 C          16.7832   70.5361   -8.3313 C.ar    1  UNL1        0.3323
     20 C          18.9406   70.4105   -7.2183 C.ar    1  UNL1        0.0869
     21 C          19.6305   70.4327   -8.3608 C.ar    1  UNL1        0.0795
     22 C          18.9024   70.5119   -9.6427 C.ar    1  UNL1        0.2626
     23 H          16.9897   70.6129  -10.3855 H       1  UNL1        0.1734
     24 O          22.1950   71.7690   -2.3803 O.3     1  UNL1       -0.2703
     25 P          23.2458   72.8804   -2.9031 P.3     1  UNL1        0.2208
     26 O          22.2911   74.0781   -3.4229 O.3     1  UNL1       -0.4371
     27 O          24.2189   72.3737   -3.9287 O.2     1  UNL1       -0.5170
     28 O          23.9316   73.4578   -1.5614 O.3     1  UNL1       -0.2858
     29 O          22.6447   73.0065    0.3724 O.3     1  UNL1       -0.3226
     30 O          25.6276   75.4842    1.8700 O.3     1  UNL1       -0.3794
     31 O          24.3947   76.0441   -0.7131 O.3     1  UNL1       -0.3775
     32 O          23.5924   73.9374    2.9167 O.3     1  UNL1       -0.3792
     33 C          25.0201   74.4910    1.0485 C.3     1  UNL1        0.1718
     34 C          23.8825   75.1023    0.2237 C.3     1  UNL1        0.1968
     35 C          24.4767   73.3732    1.9428 C.3     1  UNL1        0.1723
     36 C          23.1130   74.0120   -0.5324 C.3     1  UNL1        0.2706
     37 C          23.6979   72.3702    1.0945 C.3     1  UNL1        0.1830
     38 H          26.3383   75.0531    2.3745 H       1  UNL1        0.2105
     39 H          23.6416   76.3962   -1.2168 H       1  UNL1        0.2106
     40 H          22.7620   74.1825    2.4747 H       1  UNL1        0.2106
     41 O          23.7730   71.0863    3.0566 O.co2   1  UNL1       -0.5466
     42 O          21.9833   70.7741    1.6795 O.co2   1  UNL1       -0.5466
     43 C          23.0394   71.3301    1.9439 C.2     1  UNL1        0.0799
@<TRIPOS>UNITY_ATOM_ATTR
41 1
charge -1
@<TRIPOS>BOND
     1     1     4    1
     2     1    24    1
     3     1     2    1
     4     1     3    2
     5    25    28    1
     6    25    24    1
     7    25    26    1
     8    25    27    2
     9     6    11    1
    10     6    12    1
    11    29    36    1
    12    29    37    1
    13     7     9    1
    14     7    13    1
    15     8    10    1
    16     8    14    1
    17     4     5    1
    18    28    36    1
    19    30    33    1
    20    30    38    1
    21    31    34    1
    22    31    39    1
    23    32    35    1
    24    32    40    1
    25    41    43   ar
    26    15    19    2
    27    42    43   ar
    28    16    22    2
    29    17    12    1
    30    17    19   ar
    31    17    20   ar
    32    18    19   ar
    33    18    22   ar
    34    18    23    1
    35     9    10    1
    36     9    11    1
    37    10    12    1
    38    11     5    1
    39    33    34    1
    40    33    35    1
    41    34    36    1
    42    35    37    1
    43    37    43    1
    44    20    21   ar
    45    21    22   ar
@<TRIPOS>MOLECULE
UDP-glaA
 43 45 0 0 0
SMALL
GASTEIGER

@<TRIPOS>ATOM
      1 P          21.2746   74.0541   -4.3922 P.3     1  UNL1        0.2189
      2 O          21.9908   75.3894   -3.8252 O.3     1  UNL1       -0.4371
      3 O          21.4318   73.8293   -5.8676 O.2     1  UNL1       -0.5170
      4 O          19.7529   74.1708   -3.8571 O.3     1  UNL1       -0.3112
      5 C          18.6968   74.1137   -4.8008 C.3     1  UNL1        0.1811
      6 O          17.1201   72.4592   -5.5432 O.3     1  UNL1       -0.3308
      7 O          17.3125   71.3071   -2.7815 O.3     1  UNL1       -0.3794
      8 O          18.9148   69.6452   -4.2331 O.3     1  UNL1       -0.3779
      9 C          18.3288   71.9127   -3.5803 C.3     1  UNL1        0.1713
     10 C          18.7556   70.9730   -4.6883 C.3     1  UNL1        0.1895
     11 C          17.6940   73.0569   -4.3598 C.3     1  UNL1        0.1764
     12 C          17.6150   71.1171   -5.6814 C.3     1  UNL1        0.2383
     13 H          17.0439   71.9586   -2.1115 H       1  UNL1        0.2105
     14 H          19.5824   69.6564   -3.5257 H       1  UNL1        0.2106
     15 O          15.9140   70.2894   -7.7783 O.2     1  UNL1       -0.2464
     16 O          19.3543   70.3640  -10.8438 O.2     1  UNL1       -0.2670
     17 N          18.0393   70.9130   -7.0370 N.ar    1  UNL1       -0.2551
     18 N          17.6284   70.3266   -9.3033 N.ar    1  UNL1       -0.2743
     19 C          17.1058   70.4957   -8.0143 C.ar    1  UNL1        0.3323
     20 C          19.3682   71.1257   -7.3868 C.ar    1  UNL1        0.0869
     21 C          19.8508   70.9607   -8.6203 C.ar    1  UNL1        0.0795
     22 C          18.9419   70.5255   -9.6993 C.ar    1  UNL1        0.2626
     23 H          16.9754   70.0264  -10.0220 H       1  UNL1        0.1734
     24 O          21.8977   72.8864   -3.4629 O.3     1  UNL1       -0.2703
     25 P          23.4305   72.4482   -3.1962 P.3     1  UNL1        0.2208
     26 O          24.2065   72.9973   -4.5047 O.3     1  UNL1       -0.4371
     27 O          23.6152   70.9805   -2.9362 O.2     1  UNL1       -0.5170
     28 O          23.9264   73.4054   -1.9955 O.3     1  UNL1       -0.2858
     29 O          22.0302   72.8725   -0.6840 O.3     1  UNL1       -0.3226
     30 O          24.8926   73.6929    2.2165 O.3     1  UNL1       -0.3794
     31 O          24.7010   75.3391   -0.1834 O.3     1  UNL1       -0.3775
     32 O          22.3260   72.6733    2.1640 O.3     1  UNL1       -0.3792
     33 C          24.3553   73.2332    0.9794 C.3     1  UNL1        0.1718
     34 C          23.7128   74.3934    0.2117 C.3     1  UNL1        0.1968
     35 C          23.3101   72.1514    1.2651 C.3     1  UNL1        0.1723
     36 C          22.9831   73.8809   -1.0362 C.3     1  UNL1        0.2706
     37 C          22.6213   71.7469   -0.0365 C.3     1  UNL1        0.1830
     38 H          25.2857   72.9269    2.6684 H       1  UNL1        0.2105
     39 H          24.2499   76.0477   -0.6725 H       1  UNL1        0.2106
     40 H          21.7591   73.2935    1.6751 H       1  UNL1        0.2106
     41 O          21.7243   70.0763    1.3449 O.co2   1  UNL1       -0.5466
     42 O          20.5189   70.6544   -0.5016 O.co2   1  UNL1       -0.5466
     43 C          21.5027   70.7857    0.2121 C.2     1  UNL1        0.0799
@<TRIPOS>UNITY_ATOM_ATTR
41 1
charge -1
@<TRIPOS>BOND
     1     1     4    1
     2     1    24    1
     3     1     2    1
     4     1     3    2
     5    25    28    1
     6    25    24    1
     7    25    26    1
     8    25    27    2
     9     6    11    1
    10     6    12    1
    11    29    36    1
    12    29    37    1
    13     7     9    1
    14     7    13    1
    15     8    10    1
    16     8    14    1
    17     4     5    1
    18    28    36    1
    19    30    33    1
    20    30    38    1
    21    31    34    1
    22    31    39    1
    23    32    35    1
    24    32    40    1
    25    41    43   ar
    26    15    19    2
    27    42    43   ar
    28    16    22    2
    29    17    12    1
    30    17    19   ar
    31    17    20   ar
    32    18    19   ar
    33    18    22   ar
    34    18    23    1
    35     9    10    1
    36     9    11    1
    37    10    12    1
    38    11     5    1
    39    33    34    1
    40    33    35    1
    41    34    36    1
    42    35    37    1
    43    37    43    1
    44    20    21   ar
    45    21    22   ar
@<TRIPOS>MOLECULE
UDP-glaA
 43 45 0 0 0
SMALL
GASTEIGER

@<TRIPOS>ATOM
      1 P          21.6007   72.4522   -4.7643 P.3     1  UNL1        0.2189
      2 O          21.0244   73.9634   -4.8017 O.3     1  UNL1       -0.4371
      3 O          22.7419   72.1866   -5.7020 O.2     1  UNL1       -0.5170
      4 O          20.2892   71.5296   -4.9741 O.3     1  UNL1       -0.3112
      5 C          19.6542   70.9845   -3.8300 C.3     1  UNL1        0.1811
      6 O          17.8652   71.7721   -5.2276 O.3     1  UNL1       -0.3308
      7 O          16.0090   70.4719   -3.2642 O.3     1  UNL1       -0.3794
      8 O          16.0796   68.6638   -5.3042 O.3     1  UNL1       -0.3779
      9 C          17.2945   70.0426   -3.7125 C.3     1  UNL1        0.1713
     10 C          17.2044   69.4991   -5.1228 C.3     1  UNL1        0.1895
     11 C          18.1628   71.2795   -3.9025 C.3     1  UNL1        0.1764
     12 C          17.1252   70.7724   -5.9475 C.3     1  UNL1        0.2383
     13 H          16.1228   70.8471   -2.3743 H       1  UNL1        0.2105
     14 H          16.1517   67.9332   -4.6661 H       1  UNL1        0.2106
     15 O          15.6339   70.6609   -8.3431 O.2     1  UNL1       -0.2464
     16 O          19.4354   70.1689  -10.9015 O.2     1  UNL1       -0.2670
     17 N          17.6993   70.6163   -7.2534 N.ar    1  UNL1       -0.2551
     18 N          17.5278   70.4155   -9.6155 N.ar    1  UNL1       -0.2743
     19 C          16.8619   70.5712   -8.3926 C.ar    1  UNL1        0.3323
     20 C          19.0783   70.5096   -7.3961 C.ar    1  UNL1        0.0869
     21 C          19.6981   70.3620   -8.5691 C.ar    1  UNL1        0.0795
     22 C          18.8963   70.3046   -9.8074 C.ar    1  UNL1        0.2626
     23 H          16.9458   70.3798  -10.4480 H       1  UNL1        0.1734
     24 O          21.9501   72.2363   -3.2002 O.3     1  UNL1       -0.2703
     25 P          23.3694   72.0830   -2.4421 P.3     1  UNL1        0.2208
     26 O          24.1252   73.4713   -2.7852 O.3     1  UNL1       -0.4371
     27 O          24.1385   70.8491   -2.8184 O.2     1  UNL1       -0.5170
     28 O          23.0088   72.1912   -0.8730 O.3     1  UNL1       -0.2858
     29 O          24.4272   71.1654    0.7192 O.3     1  UNL1       -0.3226
     30 O          20.9565   71.7909    2.9197 O.3     1  UNL1       -0.3794
     31 O          20.8129   70.8713    0.1557 O.3     1  UNL1       -0.3775
     32 O          23.5415   70.9697    3.4424 O.3     1  UNL1       -0.3792
     33 C          21.9702   72.0346    1.9484 C.3     1  UNL1        0.1718
     34 C          22.0120   70.8969    0.9226 C.3     1  UNL1        0.1968
     35 C          23.3210   72.1481    2.6603 C.3     1  UNL1        0.1723
     36 C          23.2079   71.0622   -0.0234 C.3     1  UNL1        0.2706
     37 C          24.4379   72.2672    1.6257 C.3     1  UNL1        0.1830
     38 H          20.9678   72.5329    3.5481 H       1  UNL1        0.2105
     39 H          20.8893   70.1435   -0.4841 H       1  UNL1        0.2106
     40 H          23.7581   70.2365    2.8419 H       1  UNL1        0.2106
     41 O          26.3059   70.9989    2.2629 O.co2   1  UNL1       -0.5466
     42 O          26.3511   73.2271    2.7429 O.co2   1  UNL1       -0.5466
     43 C          25.7866   72.2503    2.2720 C.2     1  UNL1        0.0799
@<TRIPOS>UNITY_ATOM_ATTR
41 1
charge -1
@<TRIPOS>BOND
     1     1     4    1
     2     1    24    1
     3     1     2    1
     4     1     3    2
     5    25    28    1
     6    25    24    1
     7    25    26    1
     8    25    27    2
     9     6    11    1
    10     6    12    1
    11    29    36    1
    12    29    37    1
    13     7     9    1
    14     7    13    1
    15     8    10    1
    16     8    14    1
    17     4     5    1
    18    28    36    1
    19    30    33    1
    20    30    38    1
    21    31    34    1
    22    31    39    1
    23    32    35    1
    24    32    40    1
    25    41    43   ar
    26    15    19    2
    27    42    43   ar
    28    16    22    2
    29    17    12    1
    30    17    19   ar
    31    17    20   ar
    32    18    19   ar
    33    18    22   ar
    34    18    23    1
    35     9    10    1
    36     9    11    1
    37    10    12    1
    38    11     5    1
    39    33    34    1
    40    33    35    1
    41    34    36    1
    42    35    37    1
    43    37    43    1
    44    20    21   ar
    45    21    22   ar
@<TRIPOS>MOLECULE
UDP-glaA
 43 45 0 0 0
SMALL
GASTEIGER

@<TRIPOS>ATOM
      1 P          22.5529   71.5164   -2.7700 P.3     1  UNL1        0.2189
      2 O          22.5196   73.1187   -2.5492 O.3     1  UNL1       -0.4371
      3 O          23.9124   70.9435   -3.0452 O.2     1  UNL1       -0.5170
      4 O          21.4366   71.2569   -3.9111 O.3     1  UNL1       -0.3112
      5 C          20.5342   70.1768   -3.7427 C.3     1  UNL1        0.1811
      6 O          18.7580   71.4336   -4.7626 O.3     1  UNL1       -0.3308
      7 O          16.9633   70.2263   -2.6858 O.3     1  UNL1       -0.3794
      8 O          16.4258   68.7132   -4.8897 O.3     1  UNL1       -0.3779
      9 C          18.0755   69.6454   -3.3665 C.3     1  UNL1        0.1713
     10 C          17.7013   69.3130   -4.7955 C.3     1  UNL1        0.1895
     11 C          19.1282   70.7295   -3.5566 C.3     1  UNL1        0.1764
     12 C          17.7558   70.6773   -5.4617 C.3     1  UNL1        0.2383
     13 H          17.2609   70.4579   -1.7895 H       1  UNL1        0.2105
     14 H          16.4420   67.9045   -4.3496 H       1  UNL1        0.2106
     15 O          15.9324   70.1528   -7.5535 O.2     1  UNL1       -0.2464
     16 O          19.2469   70.3868  -10.7470 O.2     1  UNL1       -0.2670
     17 N          18.1147   70.5962   -6.8487 N.ar    1  UNL1       -0.2551
     18 N          17.5842   70.2691   -9.1423 N.ar    1  UNL1       -0.2743
     19 C          17.1228   70.3269   -7.8206 C.ar    1  UNL1        0.3323
     20 C          19.4375   70.7823   -7.2344 C.ar    1  UNL1        0.0869
     21 C          19.8615   70.7246   -8.4988 C.ar    1  UNL1        0.0795
     22 C          18.8893   70.4471   -9.5746 C.ar    1  UNL1        0.2626
     23 H          16.8886   70.0762   -9.8579 H       1  UNL1        0.1734
     24 O          21.8423   70.9514   -1.4317 O.3     1  UNL1       -0.2703
     25 P          22.3136   70.9853    0.1141 P.3     1  UNL1        0.2208
     26 O          23.9243   70.8775    0.0133 O.3     1  UNL1       -0.4371
     27 O          21.6746   69.9344    0.9760 O.2     1  UNL1       -0.5170
     28 O          22.0349   72.5007    0.5934 O.3     1  UNL1       -0.2858
     29 O          22.9061   74.6189    1.1880 O.3     1  UNL1       -0.3226
     30 O          21.6973   73.1101    4.8679 O.3     1  UNL1       -0.3794
     31 O          23.0166   71.3857    2.9206 O.3     1  UNL1       -0.3775
     32 O          22.6165   75.5266    3.8956 O.3     1  UNL1       -0.3792
     33 C          21.6805   73.3423    3.4622 C.3     1  UNL1        0.1718
     34 C          22.9619   72.8045    2.8164 C.3     1  UNL1        0.1968
     35 C          21.5589   74.8477    3.2104 C.3     1  UNL1        0.1723
     36 C          23.0319   73.2008    1.3363 C.3     1  UNL1        0.2706
     37 C          21.6823   75.1294    1.7145 C.3     1  UNL1        0.1830
     38 H          20.8706   73.4679    5.2342 H       1  UNL1        0.2105
     39 H          23.8374   71.0914    2.4912 H       1  UNL1        0.2106
     40 H          23.4471   75.3686    3.4156 H       1  UNL1        0.2106
     41 O          20.6343   76.9526    0.6746 O.co2   1  UNL1       -0.5466
     42 O          22.5505   77.3793    1.8335 O.co2   1  UNL1       -0.5466
     43 C          21.6990   76.5984    1.4339 C.2     1  UNL1        0.0799
@<TRIPOS>UNITY_ATOM_ATTR
41 1
charge -1
@<TRIPOS>BOND
     1     1     4    1
     2     1    24    1
     3     1     2    1
     4     1     3    2
     5    25    28    1
     6    25    24    1
     7    25    26    1
     8    25    27    2
     9     6    11    1
    10     6    12    1
    11    29    36    1
    12    29    37    1
    13     7     9    1
    14     7    13    1
    15     8    10    1
    16     8    14    1
    17     4     5    1
    18    28    36    1
    19    30    33    1
    20    30    38    1
    21    31    34    1
    22    31    39    1
    23    32    35    1
    24    32    40    1
    25    41    43   ar
    26    15    19    2
    27    42    43   ar
    28    16    22    2
    29    17    12    1
    30    17    19   ar
    31    17    20   ar
    32    18    19   ar
    33    18    22   ar
    34    18    23    1
    35     9    10    1
    36     9    11    1
    37    10    12    1
    38    11     5    1
    39    33    34    1
    40    33    35    1
    41    34    36    1
    42    35    37    1
    43    37    43    1
    44    20    21   ar
    45    21    22   ar
@<TRIPOS>MOLECULE
UDP-glaA
 43 45 0 0 0
SMALL
GASTEIGER

@<TRIPOS>ATOM
      1 P          22.8861   71.6748   -3.1245 P.3     1  UNL1        0.2189
      2 O          22.4292   72.3653   -4.5144 O.3     1  UNL1       -0.4371
      3 O          24.2138   70.9769   -3.1709 O.2     1  UNL1       -0.5170
      4 O          21.6220   70.7540   -2.7128 O.3     1  UNL1       -0.3112
      5 C          20.7715   70.2726   -3.7395 C.3     1  UNL1        0.1811
      6 O          18.8953   71.4617   -4.6560 O.3     1  UNL1       -0.3308
      7 O          17.2572   70.1527   -2.5125 O.3     1  UNL1       -0.3794
      8 O          16.6798   68.6431   -4.7087 O.3     1  UNL1       -0.3779
      9 C          18.3593   69.6292   -3.2535 C.3     1  UNL1        0.1713
     10 C          17.9312   69.2972   -4.6674 C.3     1  UNL1        0.1895
     11 C          19.3536   70.7606   -3.4789 C.3     1  UNL1        0.1764
     12 C          17.8941   70.6702   -5.3167 C.3     1  UNL1        0.2383
     13 H          17.5875   70.3867   -1.6283 H       1  UNL1        0.2105
     14 H          16.7572   67.8296   -4.1810 H       1  UNL1        0.2106
     15 O          15.9711   70.2225   -7.3358 O.2     1  UNL1       -0.2464
     16 O          19.1403   70.4998  -10.6702 O.2     1  UNL1       -0.2670
     17 N          18.1887   70.6210   -6.7203 N.ar    1  UNL1       -0.2551
     18 N          17.5506   70.3604   -8.9949 N.ar    1  UNL1       -0.2743
     19 C          17.1504   70.3892   -7.6524 C.ar    1  UNL1        0.3323
     20 C          19.4951   70.8011   -7.1611 C.ar    1  UNL1        0.0869
     21 C          19.8606   70.7713   -8.4446 C.ar    1  UNL1        0.0795
     22 C          18.8370   70.5337   -9.4816 C.ar    1  UNL1        0.2626
     23 H          16.8208   70.1946   -9.6827 H       1  UNL1        0.1734
     24 O          22.8042   72.8970   -2.0687 O.3     1  UNL1       -0.2703
     25 P          21.9840   74.2889   -2.1196 P.3     1  UNL1        0.2208
     26 O          20.5555   73.8553   -2.7421 O.3     1  UNL1       -0.4371
     27 O          22.6803   75.3870   -2.8713 O.2     1  UNL1       -0.5170
     28 O          21.6686   74.6344   -0.5752 O.3     1  UNL1       -0.2858
     29 O          20.9303   72.5633    0.2995 O.3     1  UNL1       -0.3226
     30 O          21.1299   74.9287    3.7120 O.3     1  UNL1       -0.3794
     31 O          20.0840   76.0148    1.2154 O.3     1  UNL1       -0.3775
     32 O          20.7207   72.2563    3.1456 O.3     1  UNL1       -0.3792
     33 C          21.4791   74.4327    2.4226 C.3     1  UNL1        0.1718
     34 C          20.3180   74.6288    1.4420 C.3     1  UNL1        0.1968
     35 C          21.8200   72.9446    2.5401 C.3     1  UNL1        0.1723
     36 C          20.6178   73.9461    0.1017 C.3     1  UNL1        0.2706
     37 C          22.0587   72.3614    1.1490 C.3     1  UNL1        0.1830
     38 H          21.8911   74.7819    4.2989 H       1  UNL1        0.2105
     39 H          19.3493   76.0888    0.5834 H       1  UNL1        0.2106
     40 H          20.0028   72.1869    2.4937 H       1  UNL1        0.2106
     41 O          23.5363   70.5912    1.5812 O.co2   1  UNL1       -0.5466
     42 O          21.4155   70.0427    0.9501 O.co2   1  UNL1       -0.5466
     43 C          22.2677   70.8815    1.2046 C.2     1  UNL1        0.0799
@<TRIPOS>UNITY_ATOM_ATTR
41 1
charge -1
@<TRIPOS>BOND
     1     1     4    1
     2     1    24    1
     3     1     2    1
     4     1     3    2
     5    25    28    1
     6    25    24    1
     7    25    26    1
     8    25    27    2
     9     6    11    1
    10     6    12    1
    11    29    36    1
    12    29    37    1
    13     7     9    1
    14     7    13    1
    15     8    10    1
    16     8    14    1
    17     4     5    1
    18    28    36    1
    19    30    33    1
    20    30    38    1
    21    31    34    1
    22    31    39    1
    23    32    35    1
    24    32    40    1
    25    41    43   ar
    26    15    19    2
    27    42    43   ar
    28    16    22    2
    29    17    12    1
    30    17    19   ar
    31    17    20   ar
    32    18    19   ar
    33    18    22   ar
    34    18    23    1
    35     9    10    1
    36     9    11    1
    37    10    12    1
    38    11     5    1
    39    33    34    1
    40    33    35    1
    41    34    36    1
    42    35    37    1
    43    37    43    1
    44    20    21   ar
    45    21    22   ar
@<TRIPOS>MOLECULE
UDP-glaA
 43 45 0 0 0
SMALL
GASTEIGER

@<TRIPOS>ATOM
      1 P          22.3262   73.1367   -5.6238 P.3     1  UNL1        0.2189
      2 O          21.1673   73.6067   -4.5974 O.3     1  UNL1       -0.4371
      3 O          23.0681   74.2548   -6.2959 O.2     1  UNL1       -0.5170
      4 O          21.5752   72.0985   -6.6105 O.3     1  UNL1       -0.3112
      5 C          20.7039   71.1347   -6.0437 C.3     1  UNL1        0.1811
      6 O          18.6489   69.9520   -6.4342 O.3     1  UNL1       -0.3308
      7 O          18.5207   71.4161   -9.0479 O.3     1  UNL1       -0.3794
      8 O          16.7811   72.8247   -7.4904 O.3     1  UNL1       -0.3779
      9 C          18.9979   71.8695   -7.7811 C.3     1  UNL1        0.1713
     10 C          17.8361   72.1390   -6.8482 C.3     1  UNL1        0.1895
     11 C          19.6928   70.7006   -7.0953 C.3     1  UNL1        0.1764
     12 C          17.4442   70.7356   -6.4183 C.3     1  UNL1        0.2383
     13 H          19.2987   71.2195   -9.5971 H       1  UNL1        0.2105
     14 H          17.1406   73.6621   -7.8305 H       1  UNL1        0.2106
     15 O          16.1885   68.4802   -5.2729 O.2     1  UNL1       -0.2464
     16 O          15.3263   70.7280   -1.3432 O.2     1  UNL1       -0.2670
     17 N          16.8834   70.7033   -5.0978 N.ar    1  UNL1       -0.2551
     18 N          15.7595   69.6012   -3.3170 N.ar    1  UNL1       -0.2743
     19 C          16.2740   69.5205   -4.6177 C.ar    1  UNL1        0.3323
     20 C          16.9401   71.8356   -4.2927 C.ar    1  UNL1        0.0869
     21 C          16.4454   71.8965   -3.0545 C.ar    1  UNL1        0.0795
     22 C          15.7918   70.7046   -2.4784 C.ar    1  UNL1        0.2626
     23 H          15.3163   68.7628   -2.9513 H       1  UNL1        0.1734
     24 O          23.2473   72.1695   -4.7120 O.3     1  UNL1       -0.2703
     25 P          23.0903   71.6969   -3.1743 P.3     1  UNL1        0.2208
     26 O          24.3651   70.7264   -2.9525 O.3     1  UNL1       -0.4371
     27 O          21.7661   71.0634   -2.8567 O.2     1  UNL1       -0.5170
     28 O          23.4243   73.0150   -2.3053 O.3     1  UNL1       -0.2858
     29 O          22.3624   72.4203   -0.2760 O.3     1  UNL1       -0.3226
     30 O          24.6535   75.6950    0.8669 O.3     1  UNL1       -0.3794
     31 O          23.2326   75.6973   -1.6800 O.3     1  UNL1       -0.3775
     32 O          23.1222   73.7781    2.1360 O.3     1  UNL1       -0.3792
     33 C          24.2957   74.5128    0.1566 C.3     1  UNL1        0.1718
     34 C          23.0121   74.7409   -0.6487 C.3     1  UNL1        0.1968
     35 C          24.0891   73.3753    1.1605 C.3     1  UNL1        0.1723
     36 C          22.5252   73.4296   -1.2778 C.3     1  UNL1        0.2706
     37 C          23.5675   72.1377    0.4336 C.3     1  UNL1        0.1830
     38 H          25.4678   75.5042    1.3630 H       1  UNL1        0.2105
     39 H          22.3979   75.8013   -2.1671 H       1  UNL1        0.2106
     40 H          22.2423   73.7648    1.7226 H       1  UNL1        0.2106
     41 O          22.0440   70.4700    1.0672 O.co2   1  UNL1       -0.5466
     42 O          23.9202   70.7006    2.3415 O.co2   1  UNL1       -0.5466
     43 C          23.2283   71.0418    1.3932 C.2     1  UNL1        0.0799
@<TRIPOS>UNITY_ATOM_ATTR
41 1
charge -1
@<TRIPOS>BOND
     1     1     4    1
     2     1    24    1
     3     1     2    1
     4     1     3    2
     5    25    28    1
     6    25    24    1
     7    25    26    1
     8    25    27    2
     9     6    11    1
    10     6    12    1
    11    29    36    1
    12    29    37    1
    13     7     9    1
    14     7    13    1
    15     8    10    1
    16     8    14    1
    17     4     5    1
    18    28    36    1
    19    30    33    1
    20    30    38    1
    21    31    34    1
    22    31    39    1
    23    32    35    1
    24    32    40    1
    25    41    43   ar
    26    15    19    2
    27    42    43   ar
    28    16    22    2
    29    17    12    1
    30    17    19   ar
    31    17    20   ar
    32    18    19   ar
    33    18    22   ar
    34    18    23    1
    35     9    10    1
    36     9    11    1
    37    10    12    1
    38    11     5    1
    39    33    34    1
    40    33    35    1
    41    34    36    1
    42    35    37    1
    43    37    43    1
    44    20    21   ar
    45    21    22   ar
@<TRIPOS>MOLECULE
UDP-glaA
 43 45 0 0 0
SMALL
GASTEIGER

@<TRIPOS>ATOM
      1 P          22.5084   71.7902   -3.4109 P.3     1  UNL1        0.2189
      2 O          22.0210   72.0892   -4.9243 O.3     1  UNL1       -0.4371
      3 O          23.9380   71.3525   -3.2811 O.2     1  UNL1       -0.5170
      4 O          21.4025   70.7561   -2.8424 O.3     1  UNL1       -0.3112
      5 C          20.5358   70.1168   -3.7640 C.3     1  UNL1        0.1811
      6 O          18.7414   71.3652   -4.7619 O.3     1  UNL1       -0.3308
      7 O          16.9667   70.1036   -2.7003 O.3     1  UNL1       -0.3794
      8 O          16.4448   68.6166   -4.9256 O.3     1  UNL1       -0.3779
      9 C          18.0851   69.5476   -3.3915 C.3     1  UNL1        0.1713
     10 C          17.7125   69.2316   -4.8247 C.3     1  UNL1        0.1895
     11 C          19.1231   70.6481   -3.5672 C.3     1  UNL1        0.1764
     12 C          17.7478   70.6063   -5.4705 C.3     1  UNL1        0.2383
     13 H          17.2629   70.3256   -1.8011 H       1  UNL1        0.2105
     14 H          16.4727   67.8002   -4.3976 H       1  UNL1        0.2106
     15 O          15.9127   70.1789   -7.5741 O.2     1  UNL1       -0.2464
     16 O          19.2330   70.4095  -10.7618 O.2     1  UNL1       -0.2670
     17 N          18.1050   70.5505   -6.8592 N.ar    1  UNL1       -0.2551
     18 N          17.5674   70.2935   -9.1600 N.ar    1  UNL1       -0.2743
     19 C          17.1072   70.3300   -7.8372 C.ar    1  UNL1        0.3323
     20 C          19.4323   70.7133   -7.2406 C.ar    1  UNL1        0.0869
     21 C          19.8551   70.6763   -8.5061 C.ar    1  UNL1        0.0795
     22 C          18.8766   70.4496   -9.5882 C.ar    1  UNL1        0.2626
     23 H          16.8675   70.1356   -9.8800 H       1  UNL1        0.1734
     24 O          22.1520   73.1647   -2.6371 O.3     1  UNL1       -0.2703
     25 P          23.1058   74.2609   -1.9290 P.3     1  UNL1        0.2208
     26 O          22.2356   75.6215   -2.0162 O.3     1  UNL1       -0.4371
     27 O          24.4783   74.3631   -2.5301 O.2     1  UNL1       -0.5170
     28 O          23.0909   73.8661   -0.3645 O.3     1  UNL1       -0.2858
     29 O          24.4832   72.3842    0.8459 O.3     1  UNL1       -0.3226
     30 O          20.8579   72.0002    2.8432 O.3     1  UNL1       -0.3794
     31 O          20.9355   72.1664   -0.0676 O.3     1  UNL1       -0.3775
     32 O          23.4591   71.1546    3.2287 O.3     1  UNL1       -0.3792
     33 C          21.9062   72.6298    2.1118 C.3     1  UNL1        0.1718
     34 C          22.0844   71.9567    0.7466 C.3     1  UNL1        0.1968
     35 C          23.2033   72.5285    2.9191 C.3     1  UNL1        0.1723
     36 C          23.3181   72.5120    0.0241 C.3     1  UNL1        0.2706
     37 C          24.3666   73.0704    2.0913 C.3     1  UNL1        0.1830
     38 H          20.7825   72.4559    3.6989 H       1  UNL1        0.2105
     39 H          21.0980   71.7319   -0.9218 H       1  UNL1        0.2106
     40 H          23.7594   70.7064    2.4199 H       1  UNL1        0.2106
     41 O          26.2033   71.6639    2.4813 O.co2   1  UNL1       -0.5466
     42 O          26.2015   73.6853    3.5353 O.co2   1  UNL1       -0.5466
     43 C          25.6743   72.8724    2.7898 C.2     1  UNL1        0.0799
@<TRIPOS>UNITY_ATOM_ATTR
41 1
charge -1
@<TRIPOS>BOND
     1     1     4    1
     2     1    24    1
     3     1     2    1
     4     1     3    2
     5    25    28    1
     6    25    24    1
     7    25    26    1
     8    25    27    2
     9     6    11    1
    10     6    12    1
    11    29    36    1
    12    29    37    1
    13     7     9    1
    14     7    13    1
    15     8    10    1
    16     8    14    1
    17     4     5    1
    18    28    36    1
    19    30    33    1
    20    30    38    1
    21    31    34    1
    22    31    39    1
    23    32    35    1
    24    32    40    1
    25    41    43   ar
    26    15    19    2
    27    42    43   ar
    28    16    22    2
    29    17    12    1
    30    17    19   ar
    31    17    20   ar
    32    18    19   ar
    33    18    22   ar
    34    18    23    1
    35     9    10    1
    36     9    11    1
    37    10    12    1
    38    11     5    1
    39    33    34    1
    40    33    35    1
    41    34    36    1
    42    35    37    1
    43    37    43    1
    44    20    21   ar
    45    21    22   ar
@<TRIPOS>MOLECULE
UDP-glaA
 43 45 0 0 0
SMALL
GASTEIGER

@<TRIPOS>ATOM
      1 P          21.2536   73.9072   -3.4949 P.3     1  UNL1        0.2189
      2 O          20.6939   74.0560   -1.9843 O.3     1  UNL1       -0.4371
      3 O          21.6746   75.1934   -4.1435 O.2     1  UNL1       -0.5170
      4 O          20.0935   73.0806   -4.2607 O.3     1  UNL1       -0.3112
      5 C          18.8596   73.7279   -4.5207 C.3     1  UNL1        0.1811
      6 O          17.1319   72.3300   -5.4347 O.3     1  UNL1       -0.3308
      7 O          17.0642   70.9829   -2.7566 O.3     1  UNL1       -0.3794
      8 O          18.5203   69.2384   -4.2640 O.3     1  UNL1       -0.3779
      9 C          18.1794   71.5121   -3.4735 C.3     1  UNL1        0.1713
     10 C          18.5401   70.6029   -4.6293 C.3     1  UNL1        0.1895
     11 C          17.7200   72.7739   -4.1920 C.3     1  UNL1        0.1764
     12 C          17.4696   70.9498   -5.6499 C.3     1  UNL1        0.2383
     13 H          16.8455   71.6165   -2.0521 H       1  UNL1        0.2105
     14 H          19.1526   69.1215   -3.5342 H       1  UNL1        0.2106
     15 O          15.7835   70.4052   -7.8490 O.2     1  UNL1       -0.2464
     16 O          19.3330   70.3376  -10.7876 O.2     1  UNL1       -0.2670
     17 N          17.9261   70.7857   -7.0005 N.ar    1  UNL1       -0.2551
     18 N          17.5522   70.3714   -9.3107 N.ar    1  UNL1       -0.2743
     19 C          16.9974   70.5136   -8.0320 C.ar    1  UNL1        0.3323
     20 C          19.2813   70.8944   -7.2921 C.ar    1  UNL1        0.0869
     21 C          19.7946   70.7567   -8.5166 C.ar    1  UNL1        0.0795
     22 C          18.8927   70.4704   -9.6498 C.ar    1  UNL1        0.2626
     23 H          16.9032   70.1748  -10.0679 H       1  UNL1        0.1734
     24 O          22.4349   72.8141   -3.3376 O.3     1  UNL1       -0.2703
     25 P          22.4242   71.3241   -2.7112 P.3     1  UNL1        0.2208
     26 O          23.9877   70.9100   -2.7118 O.3     1  UNL1       -0.4371
     27 O          21.5270   70.3592   -3.4321 O.2     1  UNL1       -0.5170
     28 O          22.0589   71.5379   -1.1540 O.3     1  UNL1       -0.2858
     29 O          23.9456   72.4515   -0.0562 O.3     1  UNL1       -0.3226
     30 O          21.2321   72.0470    3.0667 O.3     1  UNL1       -0.3794
     31 O          21.4793   69.9647    1.0396 O.3     1  UNL1       -0.3775
     32 O          23.7139   73.2042    2.7039 O.3     1  UNL1       -0.3792
     33 C          21.6999   72.2811    1.7413 C.3     1  UNL1        0.1718
     34 C          22.4052   71.0349    1.1956 C.3     1  UNL1        0.1968
     35 C          22.6697   73.4658    1.7604 C.3     1  UNL1        0.1723
     36 C          23.0607   71.3311   -0.1591 C.3     1  UNL1        0.2706
     37 C          23.2909   73.6429    0.3766 C.3     1  UNL1        0.1830
     38 H          20.7960   72.8608    3.3719 H       1  UNL1        0.2105
     39 H          21.9681   69.2034    0.6841 H       1  UNL1        0.2106
     40 H          24.3116   72.5370    2.3260 H       1  UNL1        0.2106
     41 O          24.1422   75.5804   -0.6360 O.co2   1  UNL1       -0.5466
     42 O          25.2560   74.7873    1.1882 O.co2   1  UNL1       -0.5466
     43 C          24.3417   74.7072    0.3806 C.2     1  UNL1        0.0799
@<TRIPOS>UNITY_ATOM_ATTR
41 1
charge -1
@<TRIPOS>BOND
     1     1     4    1
     2     1    24    1
     3     1     2    1
     4     1     3    2
     5    25    28    1
     6    25    24    1
     7    25    26    1
     8    25    27    2
     9     6    11    1
    10     6    12    1
    11    29    36    1
    12    29    37    1
    13     7     9    1
    14     7    13    1
    15     8    10    1
    16     8    14    1
    17     4     5    1
    18    28    36    1
    19    30    33    1
    20    30    38    1
    21    31    34    1
    22    31    39    1
    23    32    35    1
    24    32    40    1
    25    41    43   ar
    26    15    19    2
    27    42    43   ar
    28    16    22    2
    29    17    12    1
    30    17    19   ar
    31    17    20   ar
    32    18    19   ar
    33    18    22   ar
    34    18    23    1
    35     9    10    1
    36     9    11    1
    37    10    12    1
    38    11     5    1
    39    33    34    1
    40    33    35    1
    41    34    36    1
    42    35    37    1
    43    37    43    1
    44    20    21   ar
    45    21    22   ar
@<TRIPOS>MOLECULE
UDP-glaA
 43 45 0 0 0
SMALL
GASTEIGER

@<TRIPOS>ATOM
      1 P          21.8724   72.5062   -5.8005 P.3     1  UNL1        0.2189
      2 O          21.2254   73.9571   -5.4941 O.3     1  UNL1       -0.4371
      3 O          23.0369   72.5196   -6.7470 O.2     1  UNL1       -0.5170
      4 O          20.6090   71.6039   -6.2533 O.3     1  UNL1       -0.3112
      5 C          19.9200   71.9510   -7.4425 C.3     1  UNL1        0.1811
      6 O          18.6189   69.9974   -6.9279 O.3     1  UNL1       -0.3308
      7 O          17.9879   69.8753   -9.8567 O.3     1  UNL1       -0.3794
      8 O          15.7309   70.9890   -8.8072 O.3     1  UNL1       -0.3779
      9 C          18.1530   71.0165   -9.0152 C.3     1  UNL1        0.1713
     10 C          16.9469   71.1844   -8.1154 C.3     1  UNL1        0.1895
     11 C          19.2572   70.7054   -8.0134 C.3     1  UNL1        0.1764
     12 C          17.1931   70.1235   -7.0561 C.3     1  UNL1        0.2383
     13 H          18.7989   69.7854  -10.3856 H       1  UNL1        0.2105
     14 H          15.7007   71.6348   -9.5340 H       1  UNL1        0.2106
     15 O          16.7564   68.3076   -4.9378 O.2     1  UNL1       -0.2464
     16 O          15.0603   71.6132   -2.2111 O.2     1  UNL1       -0.2670
     17 N          16.6394   70.4824   -5.7818 N.ar    1  UNL1       -0.2551
     18 N          15.9116   69.9548   -3.5816 N.ar    1  UNL1       -0.2743
     19 C          16.4600   69.4941   -4.7858 C.ar    1  UNL1        0.3323
     20 C          16.2800   71.8016   -5.5288 C.ar    1  UNL1        0.0869
     21 C          15.7588   72.2251   -4.3753 C.ar    1  UNL1        0.0795
     22 C          15.5383   71.2561   -3.2835 C.ar    1  UNL1        0.2626
     23 H          15.7731   69.2615   -2.8513 H       1  UNL1        0.1734
     24 O          22.2113   71.9414   -4.3236 O.3     1  UNL1       -0.2703
     25 P          23.3536   72.3669   -3.2621 P.3     1  UNL1        0.2208
     26 O          24.5627   72.8823   -4.2048 O.3     1  UNL1       -0.4371
     27 O          23.7376   71.2785   -2.3011 O.2     1  UNL1       -0.5170
     28 O          22.7833   73.7041   -2.5617 O.3     1  UNL1       -0.2858
     29 O          20.7236   72.9357   -1.6861 O.3     1  UNL1       -0.3226
     30 O          23.4782   70.6853    0.4650 O.3     1  UNL1       -0.3794
     31 O          23.9721   73.5080   -0.0775 O.3     1  UNL1       -0.3775
     32 O          20.7344   70.7289    0.1492 O.3     1  UNL1       -0.3792
     33 C          22.9194   71.3908   -0.6397 C.3     1  UNL1        0.1718
     34 C          22.7174   72.8676   -0.2837 C.3     1  UNL1        0.1968
     35 C          21.5773   70.7522   -1.0075 C.3     1  UNL1        0.1723
     36 C          21.9606   73.5970   -1.4007 C.3     1  UNL1        0.2706
     37 C          20.8961   71.5798   -2.0953 C.3     1  UNL1        0.1830
     38 H          23.5860   69.7571    0.1960 H       1  UNL1        0.2105
     39 H          23.7944   74.4397    0.1352 H       1  UNL1        0.2106
     40 H          20.4198   71.6327    0.3205 H       1  UNL1        0.2106
     41 O          18.9541   71.7792   -3.3962 O.co2   1  UNL1       -0.5466
     42 O          18.9840   70.1312   -1.8214 O.co2   1  UNL1       -0.5466
     43 C          19.5236   71.0665   -2.3946 C.2     1  UNL1        0.0799
@<TRIPOS>UNITY_ATOM_ATTR
41 1
charge -1
@<TRIPOS>BOND
     1     1     4    1
     2     1    24    1
     3     1     2    1
     4     1     3    2
     5    25    28    1
     6    25    24    1
     7    25    26    1
     8    25    27    2
     9     6    11    1
    10     6    12    1
    11    29    36    1
    12    29    37    1
    13     7     9    1
    14     7    13    1
    15     8    10    1
    16     8    14    1
    17     4     5    1
    18    28    36    1
    19    30    33    1
    20    30    38    1
    21    31    34    1
    22    31    39    1
    23    32    35    1
    24    32    40    1
    25    41    43   ar
    26    15    19    2
    27    42    43   ar
    28    16    22    2
    29    17    12    1
    30    17    19   ar
    31    17    20   ar
    32    18    19   ar
    33    18    22   ar
    34    18    23    1
    35     9    10    1
    36     9    11    1
    37    10    12    1
    38    11     5    1
    39    33    34    1
    40    33    35    1
    41    34    36    1
    42    35    37    1
    43    37    43    1
    44    20    21   ar
    45    21    22   ar
@<TRIPOS>MOLECULE
UDP-glaA
 43 45 0 0 0
SMALL
GASTEIGER

@<TRIPOS>ATOM
      1 P          21.9248   72.4561   -5.7594 P.3     1  UNL1        0.2189
      2 O          21.2655   73.8497   -5.2688 O.3     1  UNL1       -0.4371
      3 O          23.0967   72.6017   -6.6853 O.2     1  UNL1       -0.5170
      4 O          20.6712   71.6147   -6.3391 O.3     1  UNL1       -0.3112
      5 C          20.1346   71.9802   -7.5991 C.3     1  UNL1        0.1811
      6 O          18.9214   69.9500   -7.1742 O.3     1  UNL1       -0.3308
      7 O          18.1376   70.0333  -10.0673 O.3     1  UNL1       -0.3794
      8 O          15.9084   70.9860   -8.8188 O.3     1  UNL1       -0.3779
      9 C          18.3140   71.1110   -9.1480 C.3     1  UNL1        0.1713
     10 C          17.1536   71.1682   -8.1770 C.3     1  UNL1        0.1895
     11 C          19.4792   70.7608   -8.2318 C.3     1  UNL1        0.1764
     12 C          17.4876   70.0376   -7.2188 C.3     1  UNL1        0.2383
     13 H          18.9214   70.0118  -10.6425 H       1  UNL1        0.2105
     14 H          15.8201   71.6845   -9.4900 H       1  UNL1        0.2106
     15 O          16.3255   68.0638   -5.5669 O.2     1  UNL1       -0.2464
     16 O          15.6219   71.0763   -2.1510 O.2     1  UNL1       -0.2670
     17 N          16.9928   70.2781   -5.8934 N.ar    1  UNL1       -0.2551
     18 N          15.9754   69.5653   -3.8672 N.ar    1  UNL1       -0.2743
     19 C          16.4266   69.2181   -5.1474 C.ar    1  UNL1        0.3323
     20 C          17.0711   71.5536   -5.3452 C.ar    1  UNL1        0.0869
     21 C          16.6369   71.8685   -4.1228 C.ar    1  UNL1        0.0795
     22 C          16.0313   70.8194   -3.2789 C.ar    1  UNL1        0.2626
     23 H          15.5640   68.8192   -3.3130 H       1  UNL1        0.1734
     24 O          22.2557   71.7022   -4.3675 O.3     1  UNL1       -0.2703
     25 P          23.4594   71.9102   -3.3091 P.3     1  UNL1        0.2208
     26 O          24.2438   73.2008   -3.8882 O.3     1  UNL1       -0.4371
     27 O          24.3226   70.6971   -3.1117 O.2     1  UNL1       -0.5170
     28 O          22.7368   72.4399   -1.9670 O.3     1  UNL1       -0.2858
     29 O          22.8283   70.9139   -0.1608 O.3     1  UNL1       -0.3226
     30 O          20.1902   73.7930    1.2642 O.3     1  UNL1       -0.3794
     31 O          20.0535   72.9013   -1.5092 O.3     1  UNL1       -0.3775
     32 O          21.4972   71.5870    2.2915 O.3     1  UNL1       -0.3792
     33 C          21.2966   73.2489    0.5500 C.3     1  UNL1        0.1718
     34 C          20.8124   72.2434   -0.5002 C.3     1  UNL1        0.1968
     35 C          22.2356   72.5581    1.5428 C.3     1  UNL1        0.1723
     36 C          22.0002   71.5269   -1.1545 C.3     1  UNL1        0.2706
     37 C          23.3529   71.8468    0.7826 C.3     1  UNL1        0.1830
     38 H          20.5430   74.4205    1.9180 H       1  UNL1        0.2105
     39 H          19.7776   72.2285   -2.1543 H       1  UNL1        0.2106
     40 H          21.3148   70.8258    1.7149 H       1  UNL1        0.2106
     41 O          25.3041   70.5713    1.0466 O.co2   1  UNL1       -0.5466
     42 O          23.9929   70.8564    2.8896 O.co2   1  UNL1       -0.5466
     43 C          24.2208   71.0504    1.7043 C.2     1  UNL1        0.0799
@<TRIPOS>UNITY_ATOM_ATTR
41 1
charge -1
@<TRIPOS>BOND
     1     1     4    1
     2     1    24    1
     3     1     2    1
     4     1     3    2
     5    25    28    1
     6    25    24    1
     7    25    26    1
     8    25    27    2
     9     6    11    1
    10     6    12    1
    11    29    36    1
    12    29    37    1
    13     7     9    1
    14     7    13    1
    15     8    10    1
    16     8    14    1
    17     4     5    1
    18    28    36    1
    19    30    33    1
    20    30    38    1
    21    31    34    1
    22    31    39    1
    23    32    35    1
    24    32    40    1
    25    41    43   ar
    26    15    19    2
    27    42    43   ar
    28    16    22    2
    29    17    12    1
    30    17    19   ar
    31    17    20   ar
    32    18    19   ar
    33    18    22   ar
    34    18    23    1
    35     9    10    1
    36     9    11    1
    37    10    12    1
    38    11     5    1
    39    33    34    1
    40    33    35    1
    41    34    36    1
    42    35    37    1
    43    37    43    1
    44    20    21   ar
    45    21    22   ar
@<TRIPOS>MOLECULE
UDP-glaA
 43 45 0 0 0
SMALL
GASTEIGER

@<TRIPOS>ATOM
      1 P          20.8525   74.4566   -4.1797 P.3     1  UNL1        0.2189
      2 O          21.0072   75.6083   -3.0541 O.3     1  UNL1       -0.4371
      3 O          20.2883   74.9235   -5.4896 O.2     1  UNL1       -0.5170
      4 O          20.0195   73.2897   -3.4315 O.3     1  UNL1       -0.3112
      5 C          18.6178   73.2234   -3.6314 C.3     1  UNL1        0.1811
      6 O          17.5981   71.2390   -4.5242 O.3     1  UNL1       -0.3308
      7 O          18.6750   69.8247   -2.1093 O.3     1  UNL1       -0.3794
      8 O          20.4572   69.1274   -4.0519 O.3     1  UNL1       -0.3779
      9 C          19.2575   70.8819   -2.8715 C.3     1  UNL1        0.1713
     10 C          19.7714   70.3542   -4.1944 C.3     1  UNL1        0.1895
     11 C          18.1375   71.8144   -3.3137 C.3     1  UNL1        0.1764
     12 C          18.4899   70.2169   -4.9988 C.3     1  UNL1        0.2383
     13 H          18.3259   70.2161   -1.2905 H       1  UNL1        0.2105
     14 H          21.1974   69.2755   -3.4385 H       1  UNL1        0.2106
     15 O          20.8153   71.3575   -6.1243 O.2     1  UNL1       -0.2464
     16 O          19.1993   70.8715  -10.4127 O.2     1  UNL1       -0.2670
     17 N          18.7037   70.3999   -6.4059 N.ar    1  UNL1       -0.2551
     18 N          20.0088   71.1152   -8.2590 N.ar    1  UNL1       -0.2743
     19 C          19.9064   70.9837   -6.8678 C.ar    1  UNL1        0.3323
     20 C          17.7272   70.0030   -7.3128 C.ar    1  UNL1        0.0869
     21 C          17.8400   70.1347   -8.6363 C.ar    1  UNL1        0.0795
     22 C          19.0648   70.7358   -9.2005 C.ar    1  UNL1        0.2626
     23 H          20.8649   71.5329   -8.6137 H       1  UNL1        0.1734
     24 O          22.3434   73.8369   -4.2712 O.3     1  UNL1       -0.2703
     25 P          23.1191   72.7944   -3.3099 P.3     1  UNL1        0.2208
     26 O          24.5650   72.6415   -4.0186 O.3     1  UNL1       -0.4371
     27 O          22.3934   71.4970   -3.0956 O.2     1  UNL1       -0.5170
     28 O          23.4126   73.6253   -1.9581 O.3     1  UNL1       -0.2858
     29 O          22.8462   72.2721   -0.1014 O.3     1  UNL1       -0.3226
     30 O          24.0459   75.8058    1.7299 O.3     1  UNL1       -0.3794
     31 O          22.4213   75.8692   -0.6914 O.3     1  UNL1       -0.3775
     32 O          23.3877   73.2492    2.5426 O.3     1  UNL1       -0.3792
     33 C          24.0185   74.7579    0.7647 C.3     1  UNL1        0.1718
     34 C          22.6479   74.6957    0.0821 C.3     1  UNL1        0.1968
     35 C          24.3147   73.4299    1.4670 C.3     1  UNL1        0.1723
     36 C          22.5513   73.4675   -0.8315 C.3     1  UNL1        0.2706
     37 C          24.1501   72.2783    0.4777 C.3     1  UNL1        0.1830
     38 H          24.9289   75.8063    2.1373 H       1  UNL1        0.2105
     39 H          21.5488   75.7803   -1.1105 H       1  UNL1        0.2106
     40 H          22.5201   73.0215    2.1677 H       1  UNL1        0.2106
     41 O          25.5042   70.8666    1.7728 O.co2   1  UNL1       -0.5466
     42 O          23.4639   70.0630    1.1497 O.co2   1  UNL1       -0.5466
     43 C          24.3032   70.9518    1.1516 C.2     1  UNL1        0.0799
@<TRIPOS>UNITY_ATOM_ATTR
41 1
charge -1
@<TRIPOS>BOND
     1     1     4    1
     2     1    24    1
     3     1     2    1
     4     1     3    2
     5    25    28    1
     6    25    24    1
     7    25    26    1
     8    25    27    2
     9     6    11    1
    10     6    12    1
    11    29    36    1
    12    29    37    1
    13     7     9    1
    14     7    13    1
    15     8    10    1
    16     8    14    1
    17     4     5    1
    18    28    36    1
    19    30    33    1
    20    30    38    1
    21    31    34    1
    22    31    39    1
    23    32    35    1
    24    32    40    1
    25    41    43   ar
    26    15    19    2
    27    42    43   ar
    28    16    22    2
    29    17    12    1
    30    17    19   ar
    31    17    20   ar
    32    18    19   ar
    33    18    22   ar
    34    18    23    1
    35     9    10    1
    36     9    11    1
    37    10    12    1
    38    11     5    1
    39    33    34    1
    40    33    35    1
    41    34    36    1
    42    35    37    1
    43    37    43    1
    44    20    21   ar
    45    21    22   ar
@<TRIPOS>MOLECULE
UDP-glaA
 43 45 0 0 0
SMALL
GASTEIGER

@<TRIPOS>ATOM
      1 P          23.5020   73.9358   -4.2851 P.3     1  UNL1        0.2189
      2 O          24.0835   75.2333   -5.0569 O.3     1  UNL1       -0.4371
      3 O          24.4974   72.8361   -4.0572 O.2     1  UNL1       -0.5170
      4 O          22.1896   73.5303   -5.1388 O.3     1  UNL1       -0.3112
      5 C          21.5944   72.2650   -4.9060 C.3     1  UNL1        0.1811
      6 O          20.5161   70.4199   -6.0046 O.3     1  UNL1       -0.3308
      7 O          20.8350   71.9865   -8.5414 O.3     1  UNL1       -0.3794
      8 O          18.2220   72.4242   -7.8957 O.3     1  UNL1       -0.3779
      9 C          20.5575   72.4525   -7.2209 C.3     1  UNL1        0.1713
     10 C          19.1238   72.1431   -6.8453 C.3     1  UNL1        0.1895
     11 C          21.3378   71.5840   -6.2428 C.3     1  UNL1        0.1764
     12 C          19.1957   70.6613   -6.5182 C.3     1  UNL1        0.2383
     13 H          21.7723   72.1709   -8.7228 H       1  UNL1        0.2105
     14 H          18.3157   73.3666   -8.1175 H       1  UNL1        0.2106
     15 O          16.5436   69.8826   -7.0971 O.2     1  UNL1       -0.2464
     16 O          15.5827   69.1843   -2.6443 O.2     1  UNL1       -0.2670
     17 N          18.2314   70.2705   -5.5299 N.ar    1  UNL1       -0.2551
     18 N          16.0667   69.5359   -4.8794 N.ar    1  UNL1       -0.2743
     19 C          16.9255   69.8980   -5.9255 C.ar    1  UNL1        0.3323
     20 C          18.5832   70.2592   -4.1847 C.ar    1  UNL1        0.0869
     21 C          17.7530   69.9109   -3.1991 C.ar    1  UNL1        0.0795
     22 C          16.3707   69.5094   -3.5271 C.ar    1  UNL1        0.2626
     23 H          15.1224   69.2649   -5.1403 H       1  UNL1        0.1734
     24 O          22.8758   74.5680   -2.9348 O.3     1  UNL1       -0.2703
     25 P          23.5884   75.2426   -1.6504 P.3     1  UNL1        0.2208
     26 O          22.5415   76.3930   -1.2068 O.3     1  UNL1       -0.4371
     27 O          24.9821   75.7389   -1.9091 O.2     1  UNL1       -0.5170
     28 O          23.4831   74.1255   -0.4906 O.3     1  UNL1       -0.2858
     29 O          23.8144   71.7891   -0.3145 O.3     1  UNL1       -0.3226
     30 O          20.2846   72.3311    1.8130 O.3     1  UNL1       -0.3794
     31 O          20.7506   73.7765   -0.6769 O.3     1  UNL1       -0.3775
     32 O          22.0626   70.2638    1.3718 O.3     1  UNL1       -0.3792
     33 C          21.5796   72.6294    1.2989 C.3     1  UNL1        0.1718
     34 C          21.5473   72.6836   -0.2322 C.3     1  UNL1        0.1968
     35 C          22.5584   71.5479    1.7643 C.3     1  UNL1        0.1723
     36 C          22.9640   72.8329   -0.8005 C.3     1  UNL1        0.2706
     37 C          23.9193   71.7708    1.1083 C.3     1  UNL1        0.1830
     38 H          20.3529   72.3046    2.7826 H       1  UNL1        0.2105
     39 H          20.7677   73.7757   -1.6488 H       1  UNL1        0.2106
     40 H          22.1866   70.1648    0.4126 H       1  UNL1        0.2106
     41 O          24.6790   70.2234    2.6996 O.co2   1  UNL1       -0.5466
     42 O          25.7075   70.2101    0.6651 O.co2   1  UNL1       -0.5466
     43 C          24.8710   70.6635    1.4327 C.2     1  UNL1        0.0799
@<TRIPOS>UNITY_ATOM_ATTR
41 1
charge -1
@<TRIPOS>BOND
     1     1     4    1
     2     1    24    1
     3     1     2    1
     4     1     3    2
     5    25    28    1
     6    25    24    1
     7    25    26    1
     8    25    27    2
     9     6    11    1
    10     6    12    1
    11    29    36    1
    12    29    37    1
    13     7     9    1
    14     7    13    1
    15     8    10    1
    16     8    14    1
    17     4     5    1
    18    28    36    1
    19    30    33    1
    20    30    38    1
    21    31    34    1
    22    31    39    1
    23    32    35    1
    24    32    40    1
    25    41    43   ar
    26    15    19    2
    27    42    43   ar
    28    16    22    2
    29    17    12    1
    30    17    19   ar
    31    17    20   ar
    32    18    19   ar
    33    18    22   ar
    34    18    23    1
    35     9    10    1
    36     9    11    1
    37    10    12    1
    38    11     5    1
    39    33    34    1
    40    33    35    1
    41    34    36    1
    42    35    37    1
    43    37    43    1
    44    20    21   ar
    45    21    22   ar
@<TRIPOS>MOLECULE
UDP-glaA
 43 45 0 0 0
SMALL
GASTEIGER

@<TRIPOS>ATOM
      1 P          15.6239   71.0563   -2.2207 P.3     1  UNL1        0.2189
      2 O          16.7056   72.0871   -1.6005 O.3     1  UNL1       -0.4371
      3 O          14.4148   71.7004   -2.8334 O.2     1  UNL1       -0.5170
      4 O          15.3329   70.0225   -1.0115 O.3     1  UNL1       -0.3112
      5 C          14.0659   70.0615   -0.3770 C.3     1  UNL1        0.1811
      6 O          13.4323   67.7861    0.0653 O.3     1  UNL1       -0.3308
      7 O          11.1234   68.2657   -1.7868 O.3     1  UNL1       -0.3794
      8 O           9.9703   68.4934    0.6737 O.3     1  UNL1       -0.3779
      9 C          11.7370   69.1594   -0.8580 C.3     1  UNL1        0.1713
     10 C          11.3457   68.7947    0.5585 C.3     1  UNL1        0.1895
     11 C          13.2343   68.8805   -0.8569 C.3     1  UNL1        0.1764
     12 C          12.2319   67.5912    0.8310 C.3     1  UNL1        0.2383
     13 H          11.4332   68.5130   -2.6748 H       1  UNL1        0.2105
     14 H           9.4736   69.2758    0.3785 H       1  UNL1        0.2106
     15 O          12.1937   69.7250    2.6806 O.2     1  UNL1       -0.2464
     16 O          13.5806   67.0012    6.1296 O.2     1  UNL1       -0.2670
     17 N          12.5776   67.4680    2.2183 N.ar    1  UNL1       -0.2551
     18 N          12.8848   68.3673    4.3968 N.ar    1  UNL1       -0.2743
     19 C          12.5265   68.6016    3.0627 C.ar    1  UNL1        0.3323
     20 C          12.9626   66.2336    2.7297 C.ar    1  UNL1        0.0869
     21 C          13.3009   66.0263    4.0042 C.ar    1  UNL1        0.0795
     22 C          13.2747   67.1583    4.9516 C.ar    1  UNL1        0.2626
     23 H          12.8560   69.1682    5.0219 H       1  UNL1        0.1734
     24 O          16.5102   70.1748   -3.2467 O.3     1  UNL1       -0.2703
     25 P          18.0140   69.5956   -3.1212 P.3     1  UNL1        0.2208
     26 O          17.8224   68.0089   -3.3693 O.3     1  UNL1       -0.4371
     27 O          18.7022   69.9429   -1.8322 O.2     1  UNL1       -0.5170
     28 O          18.7689   70.1277   -4.4444 O.3     1  UNL1       -0.2858
     29 O          20.0416   72.1051   -4.7084 O.3     1  UNL1       -0.3226
     30 O          18.5220   71.5301   -8.5345 O.3     1  UNL1       -0.3794
     31 O          16.8486   71.0685   -6.1909 O.3     1  UNL1       -0.3775
     32 O          20.3670   73.2032   -7.3402 O.3     1  UNL1       -0.3792
     33 C          19.0333   71.1913   -7.2484 C.3     1  UNL1        0.1718
     34 C          18.1104   71.7265   -6.1484 C.3     1  UNL1        0.1968
     35 C          20.4327   71.7941   -7.0974 C.3     1  UNL1        0.1723
     36 C          18.7373   71.5180   -4.7642 C.3     1  UNL1        0.2706
     37 C          20.9400   71.5637   -5.6755 C.3     1  UNL1        0.1830
     38 H          19.1376   71.1745   -9.1980 H       1  UNL1        0.2105
     39 H          16.3037   71.4322   -5.4728 H       1  UNL1        0.2106
     40 H          19.9451   73.6292   -6.5749 H       1  UNL1        0.2106
     41 O          22.4120   72.5384   -4.1305 O.co2   1  UNL1       -0.5466
     42 O          23.0671   72.5111   -6.3139 O.co2   1  UNL1       -0.5466
     43 C          22.2494   72.2485   -5.4440 C.2     1  UNL1        0.0799
@<TRIPOS>UNITY_ATOM_ATTR
41 1
charge -1
@<TRIPOS>BOND
     1     1     4    1
     2     1    24    1
     3     1     2    1
     4     1     3    2
     5    25    28    1
     6    25    24    1
     7    25    26    1
     8    25    27    2
     9     6    11    1
    10     6    12    1
    11    29    36    1
    12    29    37    1
    13     7     9    1
    14     7    13    1
    15     8    10    1
    16     8    14    1
    17     4     5    1
    18    28    36    1
    19    30    33    1
    20    30    38    1
    21    31    34    1
    22    31    39    1
    23    32    35    1
    24    32    40    1
    25    41    43   ar
    26    15    19    2
    27    42    43   ar
    28    16    22    2
    29    17    12    1
    30    17    19   ar
    31    17    20   ar
    32    18    19   ar
    33    18    22   ar
    34    18    23    1
    35     9    10    1
    36     9    11    1
    37    10    12    1
    38    11     5    1
    39    33    34    1
    40    33    35    1
    41    34    36    1
    42    35    37    1
    43    37    43    1
    44    20    21   ar
    45    21    22   ar
@<TRIPOS>MOLECULE
UDP-glaA
 43 45 0 0 0
SMALL
GASTEIGER

@<TRIPOS>ATOM
      1 P          23.4467   72.2372   -3.4952 P.3     1  UNL1        0.2189
      2 O          24.1849   70.8580   -3.0824 O.3     1  UNL1       -0.4371
      3 O          24.3331   73.2601   -4.1434 O.2     1  UNL1       -0.5170
      4 O          22.7095   72.7070   -2.1345 O.3     1  UNL1       -0.3112
      5 C          23.4577   72.7265   -0.9307 C.3     1  UNL1        0.1811
      6 O          24.4391   71.0766    0.5146 O.3     1  UNL1       -0.3308
      7 O          21.6322   70.2310    1.1456 O.3     1  UNL1       -0.3794
      8 O          22.3012   71.7412    3.3153 O.3     1  UNL1       -0.3779
      9 C          22.1473   71.5390    0.8974 C.3     1  UNL1        0.1713
     10 C          22.9442   72.0246    2.0898 C.3     1  UNL1        0.1895
     11 C          23.2200   71.4252   -0.1778 C.3     1  UNL1        0.1764
     12 C          24.2504   71.2663    1.9266 C.3     1  UNL1        0.2383
     13 H          21.1639   69.9467    0.3422 H       1  UNL1        0.2105
     14 H          21.4296   72.1725    3.2951 H       1  UNL1        0.2106
     15 O          24.1935   73.9935    2.6575 O.2     1  UNL1       -0.2464
     16 O          28.6190   73.9303    3.9417 O.2     1  UNL1       -0.2670
     17 N          25.3728   71.9876    2.4550 N.ar    1  UNL1       -0.2551
     18 N          26.3974   73.9604    3.2960 N.ar    1  UNL1       -0.2743
     19 C          25.2395   73.3554    2.7898 C.ar    1  UNL1        0.3323
     20 C          26.5897   71.3399    2.6368 C.ar    1  UNL1        0.0869
     21 C          27.6845   71.9305    3.1210 C.ar    1  UNL1        0.0795
     22 C          27.6301   73.3578    3.4943 C.ar    1  UNL1        0.2626
     23 H          26.3251   74.9437    3.5429 H       1  UNL1        0.1734
     24 O          22.2187   71.7292   -4.4167 O.3     1  UNL1       -0.2703
     25 P          21.3276   72.5068   -5.5185 P.3     1  UNL1        0.2208
     26 O          21.6889   71.7401   -6.8961 O.3     1  UNL1       -0.4371
     27 O          21.5535   73.9911   -5.5573 O.2     1  UNL1       -0.5170
     28 O          19.8075   72.0720   -5.1957 O.3     1  UNL1       -0.2858
     29 O          18.9631   69.8948   -4.8137 O.3     1  UNL1       -0.3226
     30 O          15.6703   71.8306   -6.4536 O.3     1  UNL1       -0.3794
     31 O          18.3435   72.2872   -7.5266 O.3     1  UNL1       -0.3775
     32 O          16.1714   69.3936   -5.2537 O.3     1  UNL1       -0.3792
     33 C          16.8676   71.6633   -5.6994 C.3     1  UNL1        0.1718
     34 C          18.0217   71.2419   -6.6152 C.3     1  UNL1        0.1968
     35 C          16.6326   70.5953   -4.6276 C.3     1  UNL1        0.1723
     36 C          19.2684   70.8934   -5.7927 C.3     1  UNL1        0.2706
     37 C          17.9432   70.2995   -3.9018 C.3     1  UNL1        0.1830
     38 H          14.9681   72.0942   -5.8347 H       1  UNL1        0.2105
     39 H          19.0829   71.9790   -8.0772 H       1  UNL1        0.2106
     40 H          16.9214   68.9753   -5.7094 H       1  UNL1        0.2106
     41 O          18.0148   67.9818   -3.5456 O.co2   1  UNL1       -0.5466
     42 O          17.5042   69.2926   -1.7516 O.co2   1  UNL1       -0.5466
     43 C          17.7898   69.1696   -2.9339 C.2     1  UNL1        0.0799
@<TRIPOS>UNITY_ATOM_ATTR
41 1
charge -1
@<TRIPOS>BOND
     1     1     4    1
     2     1    24    1
     3     1     2    1
     4     1     3    2
     5    25    28    1
     6    25    24    1
     7    25    26    1
     8    25    27    2
     9     6    11    1
    10     6    12    1
    11    29    36    1
    12    29    37    1
    13     7     9    1
    14     7    13    1
    15     8    10    1
    16     8    14    1
    17     4     5    1
    18    28    36    1
    19    30    33    1
    20    30    38    1
    21    31    34    1
    22    31    39    1
    23    32    35    1
    24    32    40    1
    25    41    43   ar
    26    15    19    2
    27    42    43   ar
    28    16    22    2
    29    17    12    1
    30    17    19   ar
    31    17    20   ar
    32    18    19   ar
    33    18    22   ar
    34    18    23    1
    35     9    10    1
    36     9    11    1
    37    10    12    1
    38    11     5    1
    39    33    34    1
    40    33    35    1
    41    34    36    1
    42    35    37    1
    43    37    43    1
    44    20    21   ar
    45    21    22   ar
@<TRIPOS>MOLECULE
UDP-glaA
 43 45 0 0 0
SMALL
GASTEIGER

@<TRIPOS>ATOM
      1 P          22.7960   72.2304   -2.2965 P.3     1  UNL1        0.2189
      2 O          23.8691   73.4354   -2.4134 O.3     1  UNL1       -0.4371
      3 O          23.3215   70.8761   -2.6729 O.2     1  UNL1       -0.5170
      4 O          21.5269   72.7544   -3.1513 O.3     1  UNL1       -0.3112
      5 C          20.8078   71.8201   -3.9381 C.3     1  UNL1        0.1811
      6 O          20.6832   70.9839   -6.1874 O.3     1  UNL1       -0.3308
      7 O          23.2940   72.3833   -6.6532 O.3     1  UNL1       -0.3794
      8 O          21.4916   74.0984   -7.7693 O.3     1  UNL1       -0.3779
      9 C          22.1863   72.7830   -5.8463 C.3     1  UNL1        0.1713
     10 C          21.0469   73.2640   -6.7197 C.3     1  UNL1        0.1895
     11 C          21.5939   71.5328   -5.2094 C.3     1  UNL1        0.1764
     12 C          20.4602   71.9559   -7.2222 C.3     1  UNL1        0.2383
     13 H          23.9824   72.0471   -6.0543 H       1  UNL1        0.2105
     14 H          21.9498   74.8561   -7.3667 H       1  UNL1        0.2106
     15 O          19.1245   70.5960   -9.3059 O.2     1  UNL1       -0.2464
     16 O          15.0515   72.3934   -8.1148 O.2     1  UNL1       -0.2670
     17 N          19.0515   72.0497   -7.4793 N.ar    1  UNL1       -0.2551
     18 N          17.0973   71.4923   -8.7118 N.ar    1  UNL1       -0.2743
     19 C          18.4793   71.3266   -8.5519 C.ar    1  UNL1        0.3323
     20 C          18.2517   72.8520   -6.6729 C.ar    1  UNL1        0.0869
     21 C          16.9353   72.9991   -6.8380 C.ar    1  UNL1        0.0795
     22 C          16.2601   72.2791   -7.9358 C.ar    1  UNL1        0.2626
     23 H          16.6644   70.9824   -9.4771 H       1  UNL1        0.1734
     24 O          22.2798   72.3518   -0.7688 O.3     1  UNL1       -0.2703
     25 P          22.6566   71.4949    0.5489 P.3     1  UNL1        0.2208
     26 O          24.1354   70.9314    0.2148 O.3     1  UNL1       -0.4371
     27 O          21.6537   70.4337    0.9011 O.2     1  UNL1       -0.5170
     28 O          22.8911   72.5993    1.7017 O.3     1  UNL1       -0.2858
     29 O          24.4558   72.6545    3.4760 O.3     1  UNL1       -0.3226
     30 O          21.1726   74.5774    5.1500 O.3     1  UNL1       -0.3794
     31 O          20.8124   72.2153    3.4777 O.3     1  UNL1       -0.3775
     32 O          23.8060   74.1278    5.8521 O.3     1  UNL1       -0.3792
     33 C          22.0966   74.1674    4.1458 C.3     1  UNL1        0.1718
     34 C          22.0713   72.6436    3.9863 C.3     1  UNL1        0.1968
     35 C          23.5005   74.6289    4.5466 C.3     1  UNL1        0.1723
     36 C          23.1802   72.1785    3.0342 C.3     1  UNL1        0.2706
     37 C          24.5241   74.0773    3.5566 C.3     1  UNL1        0.1830
     38 H          21.2243   75.5460    5.2184 H       1  UNL1        0.2105
     39 H          20.8470   71.2484    3.3849 H       1  UNL1        0.2106
     40 H          23.9838   73.1745    5.7832 H       1  UNL1        0.2106
     41 O          26.7811   73.4369    3.5562 O.co2   1  UNL1       -0.5466
     42 O          26.2541   75.3824    4.6213 O.co2   1  UNL1       -0.5466
     43 C          25.9226   74.3950    3.9814 C.2     1  UNL1        0.0799
@<TRIPOS>UNITY_ATOM_ATTR
41 1
charge -1
@<TRIPOS>BOND
     1     1     4    1
     2     1    24    1
     3     1     2    1
     4     1     3    2
     5    25    28    1
     6    25    24    1
     7    25    26    1
     8    25    27    2
     9     6    11    1
    10     6    12    1
    11    29    36    1
    12    29    37    1
    13     7     9    1
    14     7    13    1
    15     8    10    1
    16     8    14    1
    17     4     5    1
    18    28    36    1
    19    30    33    1
    20    30    38    1
    21    31    34    1
    22    31    39    1
    23    32    35    1
    24    32    40    1
    25    41    43   ar
    26    15    19    2
    27    42    43   ar
    28    16    22    2
    29    17    12    1
    30    17    19   ar
    31    17    20   ar
    32    18    19   ar
    33    18    22   ar
    34    18    23    1
    35     9    10    1
    36     9    11    1
    37    10    12    1
    38    11     5    1
    39    33    34    1
    40    33    35    1
    41    34    36    1
    42    35    37    1
    43    37    43    1
    44    20    21   ar
    45    21    22   ar
@<TRIPOS>MOLECULE
UDP-glaA
 43 45 0 0 0
SMALL
GASTEIGER

@<TRIPOS>ATOM
      1 P          23.2440   72.0657   -3.1677 P.3     1  UNL1        0.2189
      2 O          23.7770   73.5069   -3.6739 O.3     1  UNL1       -0.4371
      3 O          24.2475   70.9533   -3.2552 O.2     1  UNL1       -0.5170
      4 O          21.8740   71.8433   -3.9979 O.3     1  UNL1       -0.3112
      5 C          21.1090   70.6775   -3.7429 C.3     1  UNL1        0.1811
      6 O          19.1098   71.6862   -4.6145 O.3     1  UNL1       -0.3308
      7 O          17.6794   70.3904   -2.3197 O.3     1  UNL1       -0.3794
      8 O          17.0966   68.7270   -4.4004 O.3     1  UNL1       -0.3779
      9 C          18.7757   69.9018   -3.0924 C.3     1  UNL1        0.1713
     10 C          18.2997   69.4647   -4.4617 C.3     1  UNL1        0.1895
     11 C          19.6758   71.0832   -3.4300 C.3     1  UNL1        0.1764
     12 C          18.1336   70.7944   -5.1776 C.3     1  UNL1        0.2383
     13 H          18.0375   70.6942   -1.4683 H       1  UNL1        0.2105
     14 H          17.2576   67.9508   -3.8368 H       1  UNL1        0.2106
     15 O          16.2255   69.8429   -7.0294 O.2     1  UNL1       -0.2464
     16 O          19.1079   70.4277  -10.5775 O.2     1  UNL1       -0.2670
     17 N          18.3584   70.6879   -6.5909 N.ar    1  UNL1       -0.2551
     18 N          17.6623   70.1342   -8.7949 N.ar    1  UNL1       -0.2743
     19 C          17.3345   70.1965   -7.4341 C.ar    1  UNL1        0.3323
     20 C          19.5831   71.0680   -7.1286 C.ar    1  UNL1        0.0869
     21 C          19.8800   71.0031   -8.4283 C.ar    1  UNL1        0.0795
     22 C          18.8662   70.5004   -9.3765 C.ar    1  UNL1        0.2626
     23 H          16.9415   69.7835   -9.4198 H       1  UNL1        0.1734
     24 O          22.7153   72.3798   -1.6720 O.3     1  UNL1       -0.2703
     25 P          21.7267   73.5319   -1.1171 P.3     1  UNL1        0.2208
     26 O          20.7023   72.7161   -0.1678 O.3     1  UNL1       -0.4371
     27 O          21.0628   74.3441   -2.1919 O.2     1  UNL1       -0.5170
     28 O          22.6333   74.3916   -0.0958 O.3     1  UNL1       -0.2858
     29 O          22.5469   74.2774    2.2661 O.3     1  UNL1       -0.3226
     30 O          21.3696   70.4458    1.1652 O.3     1  UNL1       -0.3794
     31 O          23.5435   71.7891   -0.2403 O.3     1  UNL1       -0.3775
     32 O          21.4849   71.9144    3.5019 O.3     1  UNL1       -0.3792
     33 C          21.5089   71.8617    1.0870 C.3     1  UNL1        0.1718
     34 C          22.9884   72.2484    0.9876 C.3     1  UNL1        0.1968
     35 C          20.8859   72.4904    2.3364 C.3     1  UNL1        0.1723
     36 C          23.1593   73.7701    1.0760 C.3     1  UNL1        0.2706
     37 C          21.1504   73.9945    2.3404 C.3     1  UNL1        0.1830
     38 H          20.4197   70.2476    1.2291 H       1  UNL1        0.2105
     39 H          24.4754   72.0645   -0.2622 H       1  UNL1        0.2106
     40 H          22.3841   72.2719    3.5958 H       1  UNL1        0.2106
     41 O          19.5210   74.0534    4.0271 O.co2   1  UNL1       -0.5466
     42 O          21.2379   75.5443    4.1897 O.co2   1  UNL1       -0.5466
     43 C          20.6722   74.6309    3.6066 C.2     1  UNL1        0.0799
@<TRIPOS>UNITY_ATOM_ATTR
41 1
charge -1
@<TRIPOS>BOND
     1     1     4    1
     2     1    24    1
     3     1     2    1
     4     1     3    2
     5    25    28    1
     6    25    24    1
     7    25    26    1
     8    25    27    2
     9     6    11    1
    10     6    12    1
    11    29    36    1
    12    29    37    1
    13     7     9    1
    14     7    13    1
    15     8    10    1
    16     8    14    1
    17     4     5    1
    18    28    36    1
    19    30    33    1
    20    30    38    1
    21    31    34    1
    22    31    39    1
    23    32    35    1
    24    32    40    1
    25    41    43   ar
    26    15    19    2
    27    42    43   ar
    28    16    22    2
    29    17    12    1
    30    17    19   ar
    31    17    20   ar
    32    18    19   ar
    33    18    22   ar
    34    18    23    1
    35     9    10    1
    36     9    11    1
    37    10    12    1
    38    11     5    1
    39    33    34    1
    40    33    35    1
    41    34    36    1
    42    35    37    1
    43    37    43    1
    44    20    21   ar
    45    21    22   ar
