@<TRIPOS>MOLECULE
UD2
 46 48 0 0 0
SMALL
GASTEIGER

@<TRIPOS>ATOM
      1 P          20.7810   71.1058   -3.2589 P.3     1  UNL1        0.2189
      2 O          20.9698   70.3635   -1.8430 O.3     1  UNL1       -0.4371
      3 O          20.7340   70.0990   -4.3420 O.2     1  UNL1       -0.5170
      4 O          19.4063   71.9447   -3.2458 O.3     1  UNL1       -0.3112
      5 C          18.2611   71.5482   -2.4891 C.3     1  UNL1        0.1811
      6 C          16.8365   70.6837   -5.6766 C.3     1  UNL1        0.2383
      7 C          17.0482   69.3244   -4.9627 C.3     1  UNL1        0.1895
      8 O          16.0626   68.3743   -5.3723 O.3     1  UNL1       -0.3779
      9 C          16.8620   69.7064   -3.4738 C.3     1  UNL1        0.1713
     10 C          17.1069   71.2271   -3.4418 C.3     1  UNL1        0.1764
     11 O          17.4475   71.6338   -4.7768 O.3     1  UNL1       -0.3308
     12 O          15.5338   69.4041   -3.0435 O.3     1  UNL1       -0.3794
     13 H          16.1533   67.5077   -4.9535 H       1  UNL1        0.2106
     14 H          15.3054   68.4664   -3.0990 H       1  UNL1        0.2105
     15 N          17.5124   70.6948   -6.9758 N.ar    1  UNL1       -0.2551
     16 C          16.8018   70.4860   -8.0985 C.ar    1  UNL1        0.3323
     17 N          17.3969   70.4905   -9.3060 N.ar    1  UNL1       -0.2743
     18 C          18.7239   70.7080   -9.4078 C.ar    1  UNL1        0.2626
     19 C          19.4840   70.9302   -8.2344 C.ar    1  UNL1        0.0795
     20 C          18.8606   70.9244   -7.0373 C.ar    1  UNL1        0.0869
     21 O          15.6045   70.2888   -8.0217 O.2     1  UNL1       -0.2464
     22 O          19.2637   70.7127  -10.5001 O.2     1  UNL1       -0.2670
     23 H          16.8699   70.3371  -10.1053 H       1  UNL1        0.1734
     24 O          22.0174   72.1068   -3.5095 O.3     1  UNL1       -0.2703
     25 P          23.5395   72.1560   -2.9865 P.3     1  UNL1        0.2208
     26 O          24.1416   70.6627   -2.9474 O.3     1  UNL1       -0.4371
     27 O          24.3492   72.9898   -3.9017 O.2     1  UNL1       -0.5170
     28 O          23.5783   72.7896   -1.5068 O.3     1  UNL1       -0.2865
     29 C          22.7270   72.3473   -0.4480 C.3     1  UNL1        0.2611
     30 C          22.0989   73.5599    0.2434 C.3     1  UNL1        0.1582
     31 C          23.2084   74.4139    0.8647 C.3     1  UNL1        0.1625
     32 C          24.0212   73.5501    1.8329 C.3     1  UNL1        0.1686
     33 C          24.5754   72.3377    1.0800 C.3     1  UNL1        0.1760
     34 O          22.6263   75.5092    1.5752 O.3     1  UNL1       -0.3801
     35 O          23.1799   73.1071    2.8993 O.3     1  UNL1       -0.3794
     36 O          23.4946   71.6039    0.5008 O.3     1  UNL1       -0.3263
     37 H          23.2728   76.0936    1.9944 H       1  UNL1        0.2105
     38 H          23.6300   72.5526    3.5519 H       1  UNL1        0.2105
     39 C          20.0135   74.3740   -0.7188 C.2     1  UNL1        0.2231
     40 C          19.2539   75.1925   -1.7295 C.3     1  UNL1        0.0946
     41 N          21.3608   74.3561   -0.7403 N.am    1  UNL1       -0.2994
     42 O          19.4124   73.7300    0.1156 O.2     1  UNL1       -0.2751
     43 H          21.8417   74.8700   -1.4079 H       1  UNL1        0.1496
     44 C          25.3390   71.4382    2.0538 C.3     1  UNL1        0.1693
     45 O          24.8030   70.1145    2.0010 O.3     1  UNL1       -0.3794
     46 H          25.2401   69.4886    2.5944 H       1  UNL1        0.2105
@<TRIPOS>BOND
     1    29    30    1
     2    30    41    1
     3    30    31    1
     4    31    34    1
     5    31    32    1
     6    32    35    1
     7    32    33    1
     8    33    36    1
     9    33    44    1
    10    39    40    1
    11    39    42    2
    12    39    41   am
    13    41    43    1
    14    29    28    1
    15    34    37    1
    16    35    38    1
    17    29    36    1
    18    44    45    1
    19    45    46    1
    20    15     6    1
    21    15    16   ar
    22    16    21    2
    23    16    17   ar
    24    17    23    1
    25    17    18   ar
    26    18    19   ar
    27    19    20   ar
    28    15    20   ar
    29    18    22    2
    30     6     7    1
    31     6    11    1
    32     7     9    1
    33     7     8    1
    34     8    13    1
    35     9    10    1
    36     9    12    1
    37    10     5    1
    38    10    11    1
    39    12    14    1
    40     5     4    1
    41     4     1    1
    42     1     2    1
    43     1    24    1
    44     1     3    2
    45    24    25    1
    46    28    25    1
    47    25    26    1
    48    25    27    2
@<TRIPOS>MOLECULE
UD2
 46 48 0 0 0
SMALL
GASTEIGER

@<TRIPOS>ATOM
      1 P          20.9643   72.3928   -2.2201 P.3     1  UNL1        0.2189
      2 O          21.4251   72.1017   -3.7348 O.3     1  UNL1       -0.4371
      3 O          20.6061   73.8213   -2.0787 O.2     1  UNL1       -0.5170
      4 O          19.6856   71.4810   -1.8636 O.3     1  UNL1       -0.3112
      5 C          19.3450   70.3007   -2.5933 C.3     1  UNL1        0.1811
      6 C          17.3965   70.4918   -5.6105 C.3     1  UNL1        0.2383
      7 C          17.1760   69.0469   -5.0950 C.3     1  UNL1        0.1895
      8 O          15.8797   68.5680   -5.4584 O.3     1  UNL1       -0.3779
      9 C          17.2880   69.2281   -3.5613 C.3     1  UNL1        0.1713
     10 C          18.0641   70.5483   -3.3938 C.3     1  UNL1        0.1764
     11 O          18.3937   71.0207   -4.7097 O.3     1  UNL1       -0.3308
     12 O          15.9894   69.3329   -2.9752 O.3     1  UNL1       -0.3794
     13 H          15.6945   67.6677   -5.1587 H       1  UNL1        0.2106
     14 H          15.4354   68.5509   -3.1021 H       1  UNL1        0.2105
     15 N          17.8989   70.4776   -6.9861 N.ar    1  UNL1       -0.2551
     16 C          17.0303   70.4509   -8.0126 C.ar    1  UNL1        0.3323
     17 N          17.4639   70.4371   -9.2869 N.ar    1  UNL1       -0.2743
     18 C          18.7856   70.4518   -9.5543 C.ar    1  UNL1        0.2626
     19 C          19.7111   70.4810   -8.4835 C.ar    1  UNL1        0.0795
     20 C          19.2483   70.4985   -7.2159 C.ar    1  UNL1        0.0869
     21 O          15.8357   70.4376   -7.7863 O.2     1  UNL1       -0.2464
     22 O          19.1793   70.4398  -10.7073 O.2     1  UNL1       -0.2670
     23 H          16.8241   70.4167  -10.0152 H       1  UNL1        0.1734
     24 O          22.1715   72.0398   -1.2144 O.3     1  UNL1       -0.2703
     25 P          22.2438   71.4389    0.2778 P.3     1  UNL1        0.2208
     26 O          21.0867   70.3349    0.4679 O.3     1  UNL1       -0.4371
     27 O          23.5652   70.8097    0.4930 O.2     1  UNL1       -0.5170
     28 O          22.0340   72.6261    1.3451 O.3     1  UNL1       -0.2865
     29 C          22.0924   74.0094    0.9923 C.3     1  UNL1        0.2611
     30 C          23.0254   74.7443    1.9577 C.3     1  UNL1        0.1582
     31 C          22.4554   74.6498    3.3764 C.3     1  UNL1        0.1625
     32 C          21.0381   75.2289    3.3852 C.3     1  UNL1        0.1686
     33 C          20.1814   74.4750    2.3645 C.3     1  UNL1        0.1760
     34 O          23.2816   75.3956    4.2733 O.3     1  UNL1       -0.3801
     35 O          21.0859   76.6142    3.0390 O.3     1  UNL1       -0.3794
     36 O          20.7831   74.5766    1.0723 O.3     1  UNL1       -0.3263
     37 H          22.9795   75.3788    5.1918 H       1  UNL1        0.2105
     38 H          20.2207   77.0467    3.0241 H       1  UNL1        0.2105
     39 C          24.6724   73.1623    2.8077 C.2     1  UNL1        0.2231
     40 C          26.0369   72.5257    2.7707 C.3     1  UNL1        0.0946
     41 N          24.3531   74.1257    1.9212 N.am    1  UNL1       -0.2994
     42 O          23.8597   72.8078    3.6360 O.2     1  UNL1       -0.2751
     43 H          25.0028   74.4102    1.2594 H       1  UNL1        0.1496
     44 C          18.7798   75.0869    2.3243 C.3     1  UNL1        0.1693
     45 O          18.7334   76.1077    1.3253 O.3     1  UNL1       -0.3794
     46 H          17.8724   76.5404    1.2440 H       1  UNL1        0.2105
@<TRIPOS>BOND
     1    29    30    1
     2    30    41    1
     3    30    31    1
     4    31    34    1
     5    31    32    1
     6    32    35    1
     7    32    33    1
     8    33    36    1
     9    33    44    1
    10    39    40    1
    11    39    42    2
    12    39    41   am
    13    41    43    1
    14    29    28    1
    15    34    37    1
    16    35    38    1
    17    29    36    1
    18    44    45    1
    19    45    46    1
    20    15     6    1
    21    15    16   ar
    22    16    21    2
    23    16    17   ar
    24    17    23    1
    25    17    18   ar
    26    18    19   ar
    27    19    20   ar
    28    15    20   ar
    29    18    22    2
    30     6     7    1
    31     6    11    1
    32     7     9    1
    33     7     8    1
    34     8    13    1
    35     9    10    1
    36     9    12    1
    37    10     5    1
    38    10    11    1
    39    12    14    1
    40     5     4    1
    41     4     1    1
    42     1     2    1
    43     1    24    1
    44     1     3    2
    45    24    25    1
    46    28    25    1
    47    25    26    1
    48    25    27    2
@<TRIPOS>MOLECULE
UD2
 46 48 0 0 0
SMALL
GASTEIGER

@<TRIPOS>ATOM
      1 P          20.9832   71.9936   -2.1307 P.3     1  UNL1        0.2189
      2 O          21.7205   70.6136   -2.5091 O.3     1  UNL1       -0.4371
      3 O          21.4941   73.0799   -2.9955 O.2     1  UNL1       -0.5170
      4 O          19.3962   71.8323   -2.3525 O.3     1  UNL1       -0.3112
      5 C          18.7409   70.5631   -2.3835 C.3     1  UNL1        0.1811
      6 C          17.0605   70.4945   -5.5629 C.3     1  UNL1        0.2383
      7 C          16.9766   69.0357   -5.0462 C.3     1  UNL1        0.1895
      8 O          15.7877   68.3962   -5.5146 O.3     1  UNL1       -0.3779
      9 C          16.9280   69.2363   -3.5117 C.3     1  UNL1        0.1713
     10 C          17.5156   70.6443   -3.2973 C.3     1  UNL1        0.1764
     11 O          17.8997   71.1485   -4.5864 O.3     1  UNL1       -0.3308
     12 O          15.5795   69.1800   -3.0437 O.3     1  UNL1       -0.3794
     13 H          15.6902   67.4811   -5.2184 H       1  UNL1        0.2106
     14 H          15.1409   68.3341   -3.2065 H       1  UNL1        0.2105
     15 N          17.6813   70.5373   -6.8887 N.ar    1  UNL1       -0.2551
     16 C          16.9108   70.4589   -7.9882 C.ar    1  UNL1        0.3323
     17 N          17.4544   70.4955   -9.2192 N.ar    1  UNL1       -0.2743
     18 C          18.7894   70.6141   -9.3683 C.ar    1  UNL1        0.2626
     19 C          19.6123   70.6988   -8.2196 C.ar    1  UNL1        0.0795
     20 C          19.0400   70.6638   -6.9978 C.ar    1  UNL1        0.0869
     21 O          15.7055   70.3518   -7.8687 O.2     1  UNL1       -0.2464
     22 O          19.2826   70.6478  -10.4819 O.2     1  UNL1       -0.2670
     23 H          16.8844   70.4365  -10.0014 H       1  UNL1        0.1734
     24 O          21.2750   72.3529   -0.5882 O.3     1  UNL1       -0.2703
     25 P          22.1834   71.6866    0.5622 P.3     1  UNL1        0.2208
     26 O          21.5013   70.3139    1.0564 O.3     1  UNL1       -0.4371
     27 O          23.5312   71.4009    0.0234 O.2     1  UNL1       -0.5170
     28 O          22.3063   72.7031    1.8050 O.3     1  UNL1       -0.2865
     29 C          22.7124   72.2903    3.1111 C.3     1  UNL1        0.2611
     30 C          22.2047   73.2969    4.1463 C.3     1  UNL1        0.1582
     31 C          22.8405   74.6632    3.8716 C.3     1  UNL1        0.1625
     32 C          24.3646   74.5201    3.9001 C.3     1  UNL1        0.1686
     33 C          24.7891   73.4660    2.8741 C.3     1  UNL1        0.1760
     34 O          22.4291   75.5918    4.8775 O.3     1  UNL1       -0.3801
     35 O          24.7819   74.1129    5.2045 O.3     1  UNL1       -0.3794
     36 O          24.1389   72.2281    3.1685 O.3     1  UNL1       -0.3263
     37 H          22.7945   76.4801    4.7653 H       1  UNL1        0.2105
     38 H          25.7386   74.0015    5.2953 H       1  UNL1        0.2105
     39 C          20.1934   74.3525    3.2642 C.2     1  UNL1        0.2231
     40 C          18.6949   74.4658    3.1627 C.3     1  UNL1        0.0946
     41 N          20.7470   73.4066    4.0483 N.am    1  UNL1       -0.2994
     42 O          20.9030   75.1134    2.6399 O.2     1  UNL1       -0.2751
     43 H          20.1800   72.7987    4.5483 H       1  UNL1        0.1496
     44 C          26.3055   73.2739    2.9381 C.3     1  UNL1        0.1693
     45 O          26.6176   71.8876    2.7865 O.3     1  UNL1       -0.3794
     46 H          27.5640   71.6913    2.8172 H       1  UNL1        0.2105
@<TRIPOS>BOND
     1    29    30    1
     2    30    41    1
     3    30    31    1
     4    31    34    1
     5    31    32    1
     6    32    35    1
     7    32    33    1
     8    33    36    1
     9    33    44    1
    10    39    40    1
    11    39    42    2
    12    39    41   am
    13    41    43    1
    14    29    28    1
    15    34    37    1
    16    35    38    1
    17    29    36    1
    18    44    45    1
    19    45    46    1
    20    15     6    1
    21    15    16   ar
    22    16    21    2
    23    16    17   ar
    24    17    23    1
    25    17    18   ar
    26    18    19   ar
    27    19    20   ar
    28    15    20   ar
    29    18    22    2
    30     6     7    1
    31     6    11    1
    32     7     9    1
    33     7     8    1
    34     8    13    1
    35     9    10    1
    36     9    12    1
    37    10     5    1
    38    10    11    1
    39    12    14    1
    40     5     4    1
    41     4     1    1
    42     1     2    1
    43     1    24    1
    44     1     3    2
    45    24    25    1
    46    28    25    1
    47    25    26    1
    48    25    27    2
@<TRIPOS>MOLECULE
UD2
 46 48 0 0 0
SMALL
GASTEIGER

@<TRIPOS>ATOM
      1 P          16.5923   69.6747   -2.7861 P.3     1  UNL1        0.2189
      2 O          17.4297   70.8779   -2.1211 O.3     1  UNL1       -0.4371
      3 O          17.3313   68.4045   -2.6141 O.2     1  UNL1       -0.5170
      4 O          15.1549   69.5607   -2.0685 O.3     1  UNL1       -0.3112
      5 C          14.9777   68.9933   -0.7693 C.3     1  UNL1        0.1811
      6 C          12.1443   67.9521    1.1863 C.3     1  UNL1        0.2383
      7 C          12.4422   69.3944    1.6691 C.3     1  UNL1        0.1895
      8 O          11.2435   70.0502    2.0870 O.3     1  UNL1       -0.3779
      9 C          13.0156   70.0535    0.3908 C.3     1  UNL1        0.1713
     10 C          13.4823   68.8636   -0.4694 C.3     1  UNL1        0.1764
     11 O          13.2375   67.6670    0.2867 O.3     1  UNL1       -0.3308
     12 O          11.9994   70.7936   -0.2877 O.3     1  UNL1       -0.3794
     13 H          11.3782   70.9555    2.3985 H       1  UNL1        0.2106
     14 H          11.6276   71.5194    0.2313 H       1  UNL1        0.2105
     15 N          12.1479   67.0191    2.3152 N.ar    1  UNL1       -0.2551
     16 C          13.3176   66.5832    2.8157 C.ar    1  UNL1        0.3323
     17 N          13.3508   65.7253    3.8527 N.ar    1  UNL1       -0.2743
     18 C          12.2027   65.2891    4.4097 C.ar    1  UNL1        0.2626
     19 C          10.9643   65.7407    3.8935 C.ar    1  UNL1        0.0795
     20 C          10.9608   66.6039    2.8560 C.ar    1  UNL1        0.0869
     21 O          14.3606   66.9683    2.3236 O.2     1  UNL1       -0.2464
     22 O          12.2314   64.5131    5.3485 O.2     1  UNL1       -0.2670
     23 H          14.2028   65.4200    4.2005 H       1  UNL1        0.1734
     24 O          16.3858   69.9676   -4.3560 O.3     1  UNL1       -0.2703
     25 P          16.4888   71.2897   -5.2695 P.3     1  UNL1        0.2208
     26 O          15.9599   70.9582   -6.7541 O.3     1  UNL1       -0.4371
     27 O          15.6597   72.3633   -4.6793 O.2     1  UNL1       -0.5170
     28 O          18.0228   71.7739   -5.3415 O.3     1  UNL1       -0.2865
     29 C          19.1208   70.8670   -5.4560 C.3     1  UNL1        0.2611
     30 C          20.4212   71.5911   -5.0992 C.3     1  UNL1        0.1582
     31 C          20.6522   72.7294   -6.0978 C.3     1  UNL1        0.1625
     32 C          20.6793   72.1525   -7.5158 C.3     1  UNL1        0.1686
     33 C          19.3686   71.4066   -7.7795 C.3     1  UNL1        0.1760
     34 O          21.9015   73.3647   -5.8167 O.3     1  UNL1       -0.3801
     35 O          21.7780   71.2480   -7.6426 O.3     1  UNL1       -0.3794
     36 O          19.1996   70.3820   -6.7979 O.3     1  UNL1       -0.3263
     37 H          22.1123   74.0974   -6.4116 H       1  UNL1        0.2105
     38 H          21.8561   70.8431   -8.5178 H       1  UNL1        0.2105
     39 C          20.9632   71.5414   -2.7240 C.2     1  UNL1        0.2231
     40 C          20.8594   72.1061   -1.3315 C.3     1  UNL1        0.0946
     41 N          20.3195   72.1409   -3.7450 N.am    1  UNL1       -0.2994
     42 O          21.6268   70.5461   -2.9272 O.2     1  UNL1       -0.2751
     43 H          19.7881   72.9360   -3.5828 H       1  UNL1        0.1496
     44 C          19.4121   70.7764   -9.1728 C.3     1  UNL1        0.1693
     45 O          18.4042   71.3676   -9.9956 O.3     1  UNL1       -0.3794
     46 H          18.3736   71.0152  -10.8955 H       1  UNL1        0.2105
@<TRIPOS>BOND
     1    29    30    1
     2    30    41    1
     3    30    31    1
     4    31    34    1
     5    31    32    1
     6    32    35    1
     7    32    33    1
     8    33    36    1
     9    33    44    1
    10    39    40    1
    11    39    42    2
    12    39    41   am
    13    41    43    1
    14    29    28    1
    15    34    37    1
    16    35    38    1
    17    29    36    1
    18    44    45    1
    19    45    46    1
    20    15     6    1
    21    15    16   ar
    22    16    21    2
    23    16    17   ar
    24    17    23    1
    25    17    18   ar
    26    18    19   ar
    27    19    20   ar
    28    15    20   ar
    29    18    22    2
    30     6     7    1
    31     6    11    1
    32     7     9    1
    33     7     8    1
    34     8    13    1
    35     9    10    1
    36     9    12    1
    37    10     5    1
    38    10    11    1
    39    12    14    1
    40     5     4    1
    41     4     1    1
    42     1     2    1
    43     1    24    1
    44     1     3    2
    45    24    25    1
    46    28    25    1
    47    25    26    1
    48    25    27    2
@<TRIPOS>MOLECULE
UD2
 46 48 0 0 0
SMALL
GASTEIGER

@<TRIPOS>ATOM
      1 P          19.9502   73.5367   -0.6363 P.3     1  UNL1        0.2189
      2 O          18.3567   73.3083   -0.6317 O.3     1  UNL1       -0.4371
      3 O          20.2435   74.9669   -0.8756 O.2     1  UNL1       -0.5170
      4 O          20.5596   73.0947    0.7874 O.3     1  UNL1       -0.3112
      5 C          21.7501   73.6650    1.3340 C.3     1  UNL1        0.1811
      6 C          25.0381   72.3244    1.9077 C.3     1  UNL1        0.2383
      7 C          24.0876   71.3631    2.6656 C.3     1  UNL1        0.1895
      8 O          24.6163   70.0359    2.6883 O.3     1  UNL1       -0.3779
      9 C          22.8022   71.4310    1.8050 C.3     1  UNL1        0.1713
     10 C          22.9401   72.7529    1.0258 C.3     1  UNL1        0.1764
     11 O          24.1596   73.3782    1.4566 O.3     1  UNL1       -0.3308
     12 O          22.7453   70.3230    0.9051 O.3     1  UNL1       -0.3794
     13 H          24.0577   69.3975    3.1521 H       1  UNL1        0.2106
     14 H          22.7170   69.4613    1.3422 H       1  UNL1        0.2105
     15 N          26.0612   72.8564    2.8106 N.ar    1  UNL1       -0.2551
     16 C          27.2004   72.1687    3.0058 C.ar    1  UNL1        0.3323
     17 N          28.1577   72.6336    3.8301 N.ar    1  UNL1       -0.2743
     18 C          27.9874   73.8055    4.4754 C.ar    1  UNL1        0.2626
     19 C          26.7935   74.5403    4.2784 C.ar    1  UNL1        0.0795
     20 C          25.8524   74.0524    3.4430 C.ar    1  UNL1        0.0869
     21 O          27.3676   71.1107    2.4304 O.2     1  UNL1       -0.2464
     22 O          28.8532   74.2276    5.2215 O.2     1  UNL1       -0.2670
     23 H          28.9726   72.1246    3.9605 H       1  UNL1        0.1734
     24 O          20.6164   72.6492   -1.8033 O.3     1  UNL1       -0.2703
     25 P          20.5948   71.0803   -2.1651 P.3     1  UNL1        0.2208
     26 O          21.9871   70.6720   -2.8641 O.3     1  UNL1       -0.4371
     27 O          20.4149   70.2907   -0.9272 O.2     1  UNL1       -0.5170
     28 O          19.3779   70.7795   -3.1757 O.3     1  UNL1       -0.2865
     29 C          18.7076   71.8030   -3.9136 C.3     1  UNL1        0.2611
     30 C          17.3239   71.3047   -4.3376 C.3     1  UNL1        0.1582
     31 C          17.4878   70.0954   -5.2634 C.3     1  UNL1        0.1625
     32 C          18.3525   70.4968   -6.4615 C.3     1  UNL1        0.1686
     33 C          19.6969   71.0263   -5.9555 C.3     1  UNL1        0.1760
     34 O          16.2033   69.6688   -5.7230 O.3     1  UNL1       -0.3801
     35 O          17.6881   71.5166   -7.2098 O.3     1  UNL1       -0.3794
     36 O          19.4719   72.1298   -5.0760 O.3     1  UNL1       -0.3263
     37 H          16.2317   68.9043   -6.3146 H       1  UNL1        0.2105
     38 H          18.1804   71.8203   -7.9853 H       1  UNL1        0.2105
     39 C          16.5696   69.6303   -2.7360 C.2     1  UNL1        0.2231
     40 C          15.7848   69.2264   -1.5155 C.3     1  UNL1        0.0946
     41 N          16.5601   70.9126   -3.1504 N.am    1  UNL1       -0.2994
     42 O          17.2109   68.8010   -3.3468 O.2     1  UNL1       -0.2751
     43 H          16.0467   71.5758   -2.6629 H       1  UNL1        0.1496
     44 C          20.5440   71.4852   -7.1439 C.3     1  UNL1        0.1693
     45 O          19.6977   71.7163   -8.2720 O.3     1  UNL1       -0.3794
     46 H          20.1684   72.0104   -9.0638 H       1  UNL1        0.2105
@<TRIPOS>BOND
     1    29    30    1
     2    30    41    1
     3    30    31    1
     4    31    34    1
     5    31    32    1
     6    32    35    1
     7    32    33    1
     8    33    36    1
     9    33    44    1
    10    39    40    1
    11    39    42    2
    12    39    41   am
    13    41    43    1
    14    29    28    1
    15    34    37    1
    16    35    38    1
    17    29    36    1
    18    44    45    1
    19    45    46    1
    20    15     6    1
    21    15    16   ar
    22    16    21    2
    23    16    17   ar
    24    17    23    1
    25    17    18   ar
    26    18    19   ar
    27    19    20   ar
    28    15    20   ar
    29    18    22    2
    30     6     7    1
    31     6    11    1
    32     7     9    1
    33     7     8    1
    34     8    13    1
    35     9    10    1
    36     9    12    1
    37    10     5    1
    38    10    11    1
    39    12    14    1
    40     5     4    1
    41     4     1    1
    42     1     2    1
    43     1    24    1
    44     1     3    2
    45    24    25    1
    46    28    25    1
    47    25    26    1
    48    25    27    2
@<TRIPOS>MOLECULE
UD2
 46 48 0 0 0
SMALL
GASTEIGER

@<TRIPOS>ATOM
      1 P          16.0786   69.7398   -2.3613 P.3     1  UNL1        0.2189
      2 O          16.7977   68.3871   -1.8668 O.3     1  UNL1       -0.4371
      3 O          15.9102   69.7009   -3.8307 O.2     1  UNL1       -0.5170
      4 O          14.6351   69.8677   -1.6588 O.3     1  UNL1       -0.3112
      5 C          14.4355   69.6904   -0.2551 C.3     1  UNL1        0.1811
      6 C          13.2077   67.0311    1.8323 C.3     1  UNL1        0.2383
      7 C          11.9370   67.8069    1.4018 C.3     1  UNL1        0.1895
      8 O          10.8100   66.9326    1.3166 O.3     1  UNL1       -0.3779
      9 C          12.3356   68.3323    0.0009 C.3     1  UNL1        0.1713
     10 C          13.8756   68.2901    0.0072 C.3     1  UNL1        0.1764
     11 O          14.2859   67.8352    1.3065 O.3     1  UNL1       -0.3308
     12 O          11.8155   67.4778   -1.0189 O.3     1  UNL1       -0.3794
     13 H           9.9905   67.3716    1.0513 H       1  UNL1        0.2106
     14 H          10.8506   67.4204   -1.0308 H       1  UNL1        0.2105
     15 N          13.2909   66.9469    3.2921 N.ar    1  UNL1       -0.2551
     16 C          12.9084   65.8194    3.9175 C.ar    1  UNL1        0.3323
     17 N          12.9739   65.7143    5.2580 N.ar    1  UNL1       -0.2743
     18 C          13.4293   66.7454    5.9982 C.ar    1  UNL1        0.2626
     19 C          13.8363   67.9379    5.3529 C.ar    1  UNL1        0.0795
     20 C          13.7638   68.0141    4.0074 C.ar    1  UNL1        0.0869
     21 O          12.4959   64.8815    3.2627 O.2     1  UNL1       -0.2464
     22 O          13.4894   66.6514    7.2115 O.2     1  UNL1       -0.2670
     23 H          12.6929   64.8945    5.6930 H       1  UNL1        0.1734
     24 O          16.9852   71.0081   -1.9580 O.3     1  UNL1       -0.2703
     25 P          18.5285   71.4004   -2.1974 P.3     1  UNL1        0.2208
     26 O          18.9078   72.6688   -1.2804 O.3     1  UNL1       -0.4371
     27 O          19.3911   70.2547   -1.8346 O.2     1  UNL1       -0.5170
     28 O          18.7534   71.7722   -3.7479 O.3     1  UNL1       -0.2865
     29 C          19.5985   71.0144   -4.6155 C.3     1  UNL1        0.2611
     30 C          20.4364   71.9662   -5.4725 C.3     1  UNL1        0.1582
     31 C          19.5025   72.8057   -6.3497 C.3     1  UNL1        0.1625
     32 C          18.6379   71.8693   -7.1983 C.3     1  UNL1        0.1686
     33 C          17.8691   70.9210   -6.2744 C.3     1  UNL1        0.1760
     34 O          20.2795   73.6457   -7.2064 O.3     1  UNL1       -0.3801
     35 O          19.4736   71.1105   -8.0741 O.3     1  UNL1       -0.3794
     36 O          18.7946   70.1930   -5.4648 O.3     1  UNL1       -0.3263
     37 H          19.7514   74.2070   -7.7906 H       1  UNL1        0.2105
     38 H          18.9914   70.4938   -8.6426 H       1  UNL1        0.2105
     39 C          22.5451   72.9781   -4.7888 C.2     1  UNL1        0.2231
     40 C          23.3478   73.8864   -3.8948 C.3     1  UNL1        0.0946
     41 N          21.2166   72.8498   -4.6024 N.am    1  UNL1       -0.2994
     42 O          23.0944   72.3611   -5.6774 O.2     1  UNL1       -0.2751
     43 H          20.7771   73.3421   -3.8914 H       1  UNL1        0.1496
     44 C          17.0484   69.9427   -7.1168 C.3     1  UNL1        0.1693
     45 O          15.7289   70.4604   -7.2991 O.3     1  UNL1       -0.3794
     46 H          15.1514   69.8906   -7.8253 H       1  UNL1        0.2105
@<TRIPOS>BOND
     1    29    30    1
     2    30    41    1
     3    30    31    1
     4    31    34    1
     5    31    32    1
     6    32    35    1
     7    32    33    1
     8    33    36    1
     9    33    44    1
    10    39    40    1
    11    39    42    2
    12    39    41   am
    13    41    43    1
    14    29    28    1
    15    34    37    1
    16    35    38    1
    17    29    36    1
    18    44    45    1
    19    45    46    1
    20    15     6    1
    21    15    16   ar
    22    16    21    2
    23    16    17   ar
    24    17    23    1
    25    17    18   ar
    26    18    19   ar
    27    19    20   ar
    28    15    20   ar
    29    18    22    2
    30     6     7    1
    31     6    11    1
    32     7     9    1
    33     7     8    1
    34     8    13    1
    35     9    10    1
    36     9    12    1
    37    10     5    1
    38    10    11    1
    39    12    14    1
    40     5     4    1
    41     4     1    1
    42     1     2    1
    43     1    24    1
    44     1     3    2
    45    24    25    1
    46    28    25    1
    47    25    26    1
    48    25    27    2
@<TRIPOS>MOLECULE
UD2
 46 48 0 0 0
SMALL
GASTEIGER

@<TRIPOS>ATOM
      1 P          20.4019   70.8336   -3.0797 P.3     1  UNL1        0.2189
      2 O          20.2187   69.4672   -3.9107 O.3     1  UNL1       -0.4371
      3 O          21.5864   71.5631   -3.5835 O.2     1  UNL1       -0.5170
      4 O          19.0903   71.7507   -3.2592 O.3     1  UNL1       -0.3112
      5 C          17.8631   71.4944   -2.5739 C.3     1  UNL1        0.1811
      6 C          16.6633   70.5451   -5.8291 C.3     1  UNL1        0.2383
      7 C          16.8765   69.2021   -5.0854 C.3     1  UNL1        0.1895
      8 O          15.9497   68.2144   -5.5404 O.3     1  UNL1       -0.3779
      9 C          16.5881   69.5948   -3.6157 C.3     1  UNL1        0.1713
     10 C          16.7799   71.1232   -3.5897 C.3     1  UNL1        0.1764
     11 O          17.1868   71.5258   -4.9072 O.3     1  UNL1       -0.3308
     12 O          15.2471   69.2524   -3.2618 O.3     1  UNL1       -0.3794
     13 H          16.0437   67.3563   -5.1051 H       1  UNL1        0.2106
     14 H          15.0538   68.3070   -3.3181 H       1  UNL1        0.2105
     15 N          17.4158   70.5641   -7.0854 N.ar    1  UNL1       -0.2551
     16 C          16.7559   70.5764   -8.2573 C.ar    1  UNL1        0.3323
     17 N          17.4217   70.5938   -9.4272 N.ar    1  UNL1       -0.2743
     18 C          18.7702   70.6010   -9.4406 C.ar    1  UNL1        0.2626
     19 C          19.4776   70.5892   -8.2144 C.ar    1  UNL1        0.0795
     20 C          18.7844   70.5762   -7.0565 C.ar    1  UNL1        0.0869
     21 O          15.5400   70.5703   -8.2603 O.2     1  UNL1       -0.2464
     22 O          19.3740   70.6171  -10.4987 O.2     1  UNL1       -0.2670
     23 H          16.9304   70.6012  -10.2630 H       1  UNL1        0.1734
     24 O          20.6063   70.4901   -1.5197 O.3     1  UNL1       -0.2703
     25 P          21.3670   71.2226   -0.3041 P.3     1  UNL1        0.2208
     26 O          21.3784   70.2540    0.9826 O.3     1  UNL1       -0.4371
     27 O          22.7583   71.5267   -0.7042 O.2     1  UNL1       -0.5170
     28 O          20.6016   72.5914    0.0609 O.3     1  UNL1       -0.2865
     29 C          21.2856   73.8036    0.3836 C.3     1  UNL1        0.2611
     30 C          22.7926   73.6030    0.2060 C.3     1  UNL1        0.1582
     31 C          23.2737   72.5238    1.1808 C.3     1  UNL1        0.1625
     32 C          22.9077   72.9404    2.6080 C.3     1  UNL1        0.1686
     33 C          21.3959   73.1665    2.6930 C.3     1  UNL1        0.1760
     34 O          24.6920   72.3818    1.0735 O.3     1  UNL1       -0.3801
     35 O          23.5915   74.1493    2.9429 O.3     1  UNL1       -0.3794
     36 O          21.0100   74.1589    1.7400 O.3     1  UNL1       -0.3263
     37 H          25.0656   71.7129    1.6635 H       1  UNL1        0.2105
     38 H          23.4055   74.4730    3.8354 H       1  UNL1        0.2105
     39 C          23.7957   73.9725   -1.9838 C.2     1  UNL1        0.2231
     40 C          24.0829   73.5386   -3.3972 C.3     1  UNL1        0.0946
     41 N          23.0713   73.1804   -1.1689 N.am    1  UNL1       -0.2994
     42 O          24.2165   75.0357   -1.5780 O.2     1  UNL1       -0.2751
     43 H          22.7339   72.3307   -1.4931 H       1  UNL1        0.1496
     44 C          21.0297   73.6408    4.1006 C.3     1  UNL1        0.1693
     45 O          19.6098   73.6113    4.2597 O.3     1  UNL1       -0.3794
     46 H          19.3050   73.9002    5.1307 H       1  UNL1        0.2105
@<TRIPOS>BOND
     1    29    30    1
     2    30    41    1
     3    30    31    1
     4    31    34    1
     5    31    32    1
     6    32    35    1
     7    32    33    1
     8    33    36    1
     9    33    44    1
    10    39    40    1
    11    39    42    2
    12    39    41   am
    13    41    43    1
    14    29    28    1
    15    34    37    1
    16    35    38    1
    17    29    36    1
    18    44    45    1
    19    45    46    1
    20    15     6    1
    21    15    16   ar
    22    16    21    2
    23    16    17   ar
    24    17    23    1
    25    17    18   ar
    26    18    19   ar
    27    19    20   ar
    28    15    20   ar
    29    18    22    2
    30     6     7    1
    31     6    11    1
    32     7     9    1
    33     7     8    1
    34     8    13    1
    35     9    10    1
    36     9    12    1
    37    10     5    1
    38    10    11    1
    39    12    14    1
    40     5     4    1
    41     4     1    1
    42     1     2    1
    43     1    24    1
    44     1     3    2
    45    24    25    1
    46    28    25    1
    47    25    26    1
    48    25    27    2
@<TRIPOS>MOLECULE
UD2
 46 48 0 0 0
SMALL
GASTEIGER

@<TRIPOS>ATOM
      1 P          20.1958   70.9375   -2.3640 P.3     1  UNL1        0.2189
      2 O          20.9047   70.6642   -0.9448 O.3     1  UNL1       -0.4371
      3 O          20.5994   69.8900   -3.3276 O.2     1  UNL1       -0.5170
      4 O          18.5962   70.9090   -2.1789 O.3     1  UNL1       -0.3112
      5 C          17.7350   71.9209   -2.7042 C.3     1  UNL1        0.1811
      6 C          16.7133   70.4919   -5.8427 C.3     1  UNL1        0.2383
      7 C          17.1439   69.2764   -4.9829 C.3     1  UNL1        0.1895
      8 O          16.3933   68.1122   -5.3334 O.3     1  UNL1       -0.3779
      9 C          16.7924   69.7499   -3.5512 C.3     1  UNL1        0.1713
     10 C          16.7294   71.2849   -3.6671 C.3     1  UNL1        0.1764
     11 O          17.0665   71.6259   -5.0212 O.3     1  UNL1       -0.3308
     12 O          15.5256   69.2258   -3.1494 O.3     1  UNL1       -0.3794
     13 H          16.6268   67.3249   -4.8232 H       1  UNL1        0.2106
     14 H          15.4909   68.2603   -3.1168 H       1  UNL1        0.2105
     15 N          17.4542   70.5186   -7.1058 N.ar    1  UNL1       -0.2551
     16 C          16.7837   70.5519   -8.2712 C.ar    1  UNL1        0.3323
     17 N          17.4388   70.5768   -9.4469 N.ar    1  UNL1       -0.2743
     18 C          18.7871   70.5705   -9.4729 C.ar    1  UNL1        0.2626
     19 C          19.5057   70.5366   -8.2536 C.ar    1  UNL1        0.0795
     20 C          18.8231   70.5165   -7.0895 C.ar    1  UNL1        0.0869
     21 O          15.5679   70.5582   -8.2629 O.2     1  UNL1       -0.2464
     22 O          19.3813   70.5934  -10.5364 O.2     1  UNL1       -0.2670
     23 H          16.9399   70.5994  -10.2780 H       1  UNL1        0.1734
     24 O          20.6454   72.3805   -2.9197 O.3     1  UNL1       -0.2703
     25 P          21.9896   72.9463   -3.6024 P.3     1  UNL1        0.2208
     26 O          23.0030   71.7263   -3.8827 O.3     1  UNL1       -0.4371
     27 O          21.6523   73.6102   -4.8806 O.2     1  UNL1       -0.5170
     28 O          22.6878   74.0080   -2.6134 O.3     1  UNL1       -0.2865
     29 C          24.1016   74.0793   -2.4207 C.3     1  UNL1        0.2611
     30 C          24.4070   74.9308   -1.1861 C.3     1  UNL1        0.1582
     31 C          23.8971   76.3561   -1.4207 C.3     1  UNL1        0.1625
     32 C          24.5475   76.9173   -2.6882 C.3     1  UNL1        0.1686
     33 C          24.2366   75.9889   -3.8652 C.3     1  UNL1        0.1760
     34 O          24.2432   77.1769   -0.3028 O.3     1  UNL1       -0.3801
     35 O          25.9619   76.9981   -2.5036 O.3     1  UNL1       -0.3794
     36 O          24.7093   74.6731   -3.5698 O.3     1  UNL1       -0.3263
     37 H          23.9499   78.0948   -0.3835 H       1  UNL1        0.2105
     38 H          26.4400   77.3456   -3.2696 H       1  UNL1        0.2105
     39 C          24.3457   74.3682    1.1841 C.2     1  UNL1        0.2231
     40 C          23.6558   73.7785    2.3861 C.3     1  UNL1        0.0946
     41 N          23.7353   74.3567   -0.0174 N.am    1  UNL1       -0.2994
     42 O          25.4518   74.8541    1.2970 O.2     1  UNL1       -0.2751
     43 H          22.8514   73.9675   -0.1083 H       1  UNL1        0.1496
     44 C          24.9326   76.5106   -5.1237 C.3     1  UNL1        0.1693
     45 O          26.2002   75.8670   -5.2694 O.3     1  UNL1       -0.3794
     46 H          26.6985   76.1500   -6.0483 H       1  UNL1        0.2105
@<TRIPOS>BOND
     1    29    30    1
     2    30    41    1
     3    30    31    1
     4    31    34    1
     5    31    32    1
     6    32    35    1
     7    32    33    1
     8    33    36    1
     9    33    44    1
    10    39    40    1
    11    39    42    2
    12    39    41   am
    13    41    43    1
    14    29    28    1
    15    34    37    1
    16    35    38    1
    17    29    36    1
    18    44    45    1
    19    45    46    1
    20    15     6    1
    21    15    16   ar
    22    16    21    2
    23    16    17   ar
    24    17    23    1
    25    17    18   ar
    26    18    19   ar
    27    19    20   ar
    28    15    20   ar
    29    18    22    2
    30     6     7    1
    31     6    11    1
    32     7     9    1
    33     7     8    1
    34     8    13    1
    35     9    10    1
    36     9    12    1
    37    10     5    1
    38    10    11    1
    39    12    14    1
    40     5     4    1
    41     4     1    1
    42     1     2    1
    43     1    24    1
    44     1     3    2
    45    24    25    1
    46    28    25    1
    47    25    26    1
    48    25    27    2
@<TRIPOS>MOLECULE
UD2
 46 48 0 0 0
SMALL
GASTEIGER

@<TRIPOS>ATOM
      1 P          21.4387   71.9123   -2.5037 P.3     1  UNL1        0.2189
      2 O          22.6039   71.4944   -3.5327 O.3     1  UNL1       -0.4371
      3 O          21.5767   73.3437   -2.1560 O.2     1  UNL1       -0.5170
      4 O          20.0028   71.6625   -3.1889 O.3     1  UNL1       -0.3112
      5 C          19.0109   70.8033   -2.6237 C.3     1  UNL1        0.1811
      6 C          17.2034   70.5707   -5.7246 C.3     1  UNL1        0.2383
      7 C          17.1361   69.1426   -5.1262 C.3     1  UNL1        0.1895
      8 O          15.9274   68.4848   -5.5109 O.3     1  UNL1       -0.3779
      9 C          17.1500   69.4267   -3.6042 C.3     1  UNL1        0.1713
     10 C          17.7500   70.8411   -3.4906 C.3     1  UNL1        0.1764
     11 O          18.0833   71.2724   -4.8197 O.3     1  UNL1       -0.3308
     12 O          15.8213   69.4029   -3.0801 O.3     1  UNL1       -0.3794
     13 H          15.8391   67.5877   -5.1615 H       1  UNL1        0.2106
     14 H          15.3739   68.5517   -3.1788 H       1  UNL1        0.2105
     15 N          17.7704   70.5380   -7.0746 N.ar    1  UNL1       -0.2551
     16 C          16.9523   70.4612   -8.1393 C.ar    1  UNL1        0.3323
     17 N          17.4459   70.4294   -9.3914 N.ar    1  UNL1       -0.2743
     18 C          18.7778   70.4765   -9.5973 C.ar    1  UNL1        0.2626
     19 C          19.6505   70.5585   -8.4857 C.ar    1  UNL1        0.0795
     20 C          19.1280   70.5930   -7.2418 C.ar    1  UNL1        0.0869
     21 O          15.7493   70.4183   -7.9686 O.2     1  UNL1       -0.2464
     22 O          19.2257   70.4482  -10.7300 O.2     1  UNL1       -0.2670
     23 H          16.8420   70.3727  -10.1478 H       1  UNL1        0.1734
     24 O          21.5572   71.0213   -1.1676 O.3     1  UNL1       -0.2703
     25 P          22.2214   71.2597    0.2799 P.3     1  UNL1        0.2208
     26 O          21.8410   70.0340    1.2528 O.3     1  UNL1       -0.4371
     27 O          23.6919   71.3404    0.1409 O.2     1  UNL1       -0.5170
     28 O          21.6647   72.6350    0.9056 O.3     1  UNL1       -0.2865
     29 C          20.4632   72.7100    1.6750 C.3     1  UNL1        0.2611
     30 C          19.6917   73.9765    1.2961 C.3     1  UNL1        0.1582
     31 C          20.5416   75.2036    1.6400 C.3     1  UNL1        0.1625
     32 C          20.8971   75.1641    3.1287 C.3     1  UNL1        0.1686
     33 C          21.6223   73.8515    3.4370 C.3     1  UNL1        0.1760
     34 O          19.7995   76.3923    1.3575 O.3     1  UNL1       -0.3801
     35 O          19.7020   75.2444    3.9075 O.3     1  UNL1       -0.3794
     36 O          20.7902   72.7508    3.0656 O.3     1  UNL1       -0.3263
     37 H          20.2784   77.2098    1.5514 H       1  UNL1        0.2105
     38 H          19.8522   75.2240    4.8630 H       1  UNL1        0.2105
     39 C          18.1940   74.3397   -0.5914 C.2     1  UNL1        0.2231
     40 C          17.9012   74.3282   -2.0688 C.3     1  UNL1        0.0946
     41 N          19.4076   73.9647   -0.1411 N.am    1  UNL1       -0.2994
     42 O          17.3370   74.6867    0.1943 O.2     1  UNL1       -0.2751
     43 H          20.0928   73.6863   -0.7689 H       1  UNL1        0.1496
     44 C          21.9282   73.7776    4.9342 C.3     1  UNL1        0.1693
     45 O          22.3822   72.4632    5.2640 O.3     1  UNL1       -0.3794
     46 H          22.5952   72.3434    6.1996 H       1  UNL1        0.2105
@<TRIPOS>BOND
     1    29    30    1
     2    30    41    1
     3    30    31    1
     4    31    34    1
     5    31    32    1
     6    32    35    1
     7    32    33    1
     8    33    36    1
     9    33    44    1
    10    39    40    1
    11    39    42    2
    12    39    41   am
    13    41    43    1
    14    29    28    1
    15    34    37    1
    16    35    38    1
    17    29    36    1
    18    44    45    1
    19    45    46    1
    20    15     6    1
    21    15    16   ar
    22    16    21    2
    23    16    17   ar
    24    17    23    1
    25    17    18   ar
    26    18    19   ar
    27    19    20   ar
    28    15    20   ar
    29    18    22    2
    30     6     7    1
    31     6    11    1
    32     7     9    1
    33     7     8    1
    34     8    13    1
    35     9    10    1
    36     9    12    1
    37    10     5    1
    38    10    11    1
    39    12    14    1
    40     5     4    1
    41     4     1    1
    42     1     2    1
    43     1    24    1
    44     1     3    2
    45    24    25    1
    46    28    25    1
    47    25    26    1
    48    25    27    2
@<TRIPOS>MOLECULE
UD2
 46 48 0 0 0
SMALL
GASTEIGER

@<TRIPOS>ATOM
      1 P          22.6334   71.2153   -2.6631 P.3     1  UNL1        0.2189
      2 O          24.1178   70.8555   -3.1716 O.3     1  UNL1       -0.4371
      3 O          22.2841   72.5880   -3.0905 O.2     1  UNL1       -0.5170
      4 O          21.5821   70.1722   -3.2958 O.3     1  UNL1       -0.3112
      5 C          20.7068   70.5084   -4.3738 C.3     1  UNL1        0.1811
      6 C          17.2198   71.3407   -4.6656 C.3     1  UNL1        0.2383
      7 C          17.2623   69.7954   -4.7766 C.3     1  UNL1        0.1895
      8 O          16.0670   69.2134   -4.2529 O.3     1  UNL1       -0.3779
      9 C          18.4830   69.4392   -3.8933 C.3     1  UNL1        0.1713
     10 C          19.2960   70.7463   -3.8297 C.3     1  UNL1        0.1764
     11 O          18.6148   71.7139   -4.6441 O.3     1  UNL1       -0.3308
     12 O          18.0567   69.0508   -2.5863 O.3     1  UNL1       -0.3794
     13 H          16.0456   68.2480   -4.3006 H       1  UNL1        0.2106
     14 H          17.4919   68.2664   -2.5729 H       1  UNL1        0.2105
     15 N          16.5474   71.9231   -5.8290 N.ar    1  UNL1       -0.2551
     16 C          16.6815   71.3439   -7.0354 C.ar    1  UNL1        0.3323
     17 N          16.0750   71.8577   -8.1219 N.ar    1  UNL1       -0.2743
     18 C          15.3171   72.9679   -8.0147 C.ar    1  UNL1        0.2626
     19 C          15.1664   73.5874   -6.7507 C.ar    1  UNL1        0.0795
     20 C          15.7824   73.0483   -5.6777 C.ar    1  UNL1        0.0869
     21 O          17.3617   70.3422   -7.1468 O.2     1  UNL1       -0.2464
     22 O          14.7673   73.4337   -8.9972 O.2     1  UNL1       -0.2670
     23 H          16.1831   71.4282   -8.9844 H       1  UNL1        0.1734
     24 O          22.5791   71.1230   -1.0563 O.3     1  UNL1       -0.2703
     25 P          21.3845   71.1185    0.0234 P.3     1  UNL1        0.2208
     26 O          20.0135   70.6746   -0.6957 O.3     1  UNL1       -0.4371
     27 O          21.7032   70.1644    1.1081 O.2     1  UNL1       -0.5170
     28 O          21.2134   72.5958    0.6405 O.3     1  UNL1       -0.2865
     29 C          22.2847   73.5384    0.7121 C.3     1  UNL1        0.2611
     30 C          22.0910   74.4408    1.9331 C.3     1  UNL1        0.1582
     31 C          20.7875   75.2293    1.7728 C.3     1  UNL1        0.1625
     32 C          20.8423   76.0251    0.4658 C.3     1  UNL1        0.1686
     33 C          21.0842   75.0614   -0.6990 C.3     1  UNL1        0.1760
     34 O          20.6354   76.1286    2.8735 O.3     1  UNL1       -0.3801
     35 O          21.9075   76.9752    0.5294 O.3     1  UNL1       -0.3794
     36 O          22.2954   74.3376   -0.4726 O.3     1  UNL1       -0.3263
     37 H          19.8288   76.6609    2.8373 H       1  UNL1        0.2105
     38 H          22.0015   77.5155   -0.2676 H       1  UNL1        0.2105
     39 C          22.6532   74.0130    4.2652 C.2     1  UNL1        0.2231
     40 C          22.5804   73.1678    5.5098 C.3     1  UNL1        0.0946
     41 N          22.0198   73.6180    3.1432 N.am    1  UNL1       -0.2994
     42 O          23.2826   75.0504    4.2722 O.2     1  UNL1       -0.2751
     43 H          21.5173   72.7882    3.1369 H       1  UNL1        0.1496
     44 C          21.1998   75.8551   -2.0017 C.3     1  UNL1        0.1693
     45 O          22.4034   75.4877   -2.6790 O.3     1  UNL1       -0.3794
     46 H          22.5425   75.9529   -3.5152 H       1  UNL1        0.2105
@<TRIPOS>BOND
     1    29    30    1
     2    30    41    1
     3    30    31    1
     4    31    34    1
     5    31    32    1
     6    32    35    1
     7    32    33    1
     8    33    36    1
     9    33    44    1
    10    39    40    1
    11    39    42    2
    12    39    41   am
    13    41    43    1
    14    29    28    1
    15    34    37    1
    16    35    38    1
    17    29    36    1
    18    44    45    1
    19    45    46    1
    20    15     6    1
    21    15    16   ar
    22    16    21    2
    23    16    17   ar
    24    17    23    1
    25    17    18   ar
    26    18    19   ar
    27    19    20   ar
    28    15    20   ar
    29    18    22    2
    30     6     7    1
    31     6    11    1
    32     7     9    1
    33     7     8    1
    34     8    13    1
    35     9    10    1
    36     9    12    1
    37    10     5    1
    38    10    11    1
    39    12    14    1
    40     5     4    1
    41     4     1    1
    42     1     2    1
    43     1    24    1
    44     1     3    2
    45    24    25    1
    46    28    25    1
    47    25    26    1
    48    25    27    2
@<TRIPOS>MOLECULE
UD2
 46 48 0 0 0
SMALL
GASTEIGER

@<TRIPOS>ATOM
      1 P          22.5869   71.4194   -2.5766 P.3     1  UNL1        0.2189
      2 O          22.4981   72.9963   -2.8876 O.3     1  UNL1       -0.4371
      3 O          23.8149   70.8640   -3.1869 O.2     1  UNL1       -0.5170
      4 O          22.6276   71.1883   -0.9833 O.3     1  UNL1       -0.3112
      5 C          21.4750   70.8250   -0.2210 C.3     1  UNL1        0.1811
      6 C          23.3749   72.0343    2.5834 C.3     1  UNL1        0.2383
      7 C          22.8381   73.3149    1.8950 C.3     1  UNL1        0.1895
      8 O          22.6241   74.3559    2.8502 O.3     1  UNL1       -0.3779
      9 C          21.4946   72.8259    1.3006 C.3     1  UNL1        0.1713
     10 C          21.6513   71.2951    1.2250 C.3     1  UNL1        0.1764
     11 O          22.9748   70.9773    1.6843 O.3     1  UNL1       -0.3308
     12 O          20.4107   73.1762    2.1627 O.3     1  UNL1       -0.3794
     13 H          22.2888   75.1781    2.4679 H       1  UNL1        0.2106
     14 H          20.3029   74.1279    2.2935 H       1  UNL1        0.2105
     15 N          24.8337   72.0857    2.7028 N.ar    1  UNL1       -0.2551
     16 C          25.5587   70.9711    2.5006 C.ar    1  UNL1        0.3323
     17 N          26.9008   70.9893    2.6040 N.ar    1  UNL1       -0.2743
     18 C          27.5423   72.1347    2.9125 C.ar    1  UNL1        0.2626
     19 C          26.7917   73.3157    3.1270 C.ar    1  UNL1        0.0795
     20 C          25.4477   73.2694    3.0126 C.ar    1  UNL1        0.0869
     21 O          24.9936   69.9313    2.2216 O.2     1  UNL1       -0.2464
     22 O          28.7570   72.1526    3.0060 O.2     1  UNL1       -0.2670
     23 H          27.4081   70.1764    2.4562 H       1  UNL1        0.1734
     24 O          21.2977   70.6770   -3.1931 O.3     1  UNL1       -0.2703
     25 P          19.7140   70.9648   -3.1478 P.3     1  UNL1        0.2208
     26 O          19.0300   70.0247   -2.0332 O.3     1  UNL1       -0.4371
     27 O          19.4800   72.3848   -2.8057 O.2     1  UNL1       -0.5170
     28 O          19.0693   70.6460   -4.5884 O.3     1  UNL1       -0.2865
     29 C          18.4115   71.6346   -5.3829 C.3     1  UNL1        0.2611
     30 C          16.9710   71.1953   -5.6562 C.3     1  UNL1        0.1582
     31 C          16.9878   69.8902   -6.4579 C.3     1  UNL1        0.1625
     32 C          17.7835   70.1063   -7.7481 C.3     1  UNL1        0.1686
     33 C          19.1931   70.5877   -7.3939 C.3     1  UNL1        0.1760
     34 O          15.6479   69.5113   -6.7809 O.3     1  UNL1       -0.3801
     35 O          17.1306   71.0897   -8.5529 O.3     1  UNL1       -0.3794
     36 O          19.1053   71.7875   -6.6229 O.3     1  UNL1       -0.3263
     37 H          15.5832   68.6909   -7.2889 H       1  UNL1        0.2105
     38 H          17.5814   71.2781   -9.3880 H       1  UNL1        0.2105
     39 C          16.2310   69.7479   -3.8410 C.2     1  UNL1        0.2231
     40 C          15.5163   69.5259   -2.5339 C.3     1  UNL1        0.0946
     41 N          16.2755   70.9801   -4.3848 N.am    1  UNL1       -0.2994
     42 O          16.7671   68.8170   -4.4052 O.2     1  UNL1       -0.2751
     43 H          15.8462   71.7244   -3.9346 H       1  UNL1        0.1496
     44 C          19.9756   70.8631   -8.6793 C.3     1  UNL1        0.1693
     45 O          20.8489   71.9761   -8.4769 O.3     1  UNL1       -0.3794
     46 H          21.3777   72.2080   -9.2526 H       1  UNL1        0.2105
@<TRIPOS>BOND
     1    29    30    1
     2    30    41    1
     3    30    31    1
     4    31    34    1
     5    31    32    1
     6    32    35    1
     7    32    33    1
     8    33    36    1
     9    33    44    1
    10    39    40    1
    11    39    42    2
    12    39    41   am
    13    41    43    1
    14    29    28    1
    15    34    37    1
    16    35    38    1
    17    29    36    1
    18    44    45    1
    19    45    46    1
    20    15     6    1
    21    15    16   ar
    22    16    21    2
    23    16    17   ar
    24    17    23    1
    25    17    18   ar
    26    18    19   ar
    27    19    20   ar
    28    15    20   ar
    29    18    22    2
    30     6     7    1
    31     6    11    1
    32     7     9    1
    33     7     8    1
    34     8    13    1
    35     9    10    1
    36     9    12    1
    37    10     5    1
    38    10    11    1
    39    12    14    1
    40     5     4    1
    41     4     1    1
    42     1     2    1
    43     1    24    1
    44     1     3    2
    45    24    25    1
    46    28    25    1
    47    25    26    1
    48    25    27    2
@<TRIPOS>MOLECULE
UD2
 46 48 0 0 0
SMALL
GASTEIGER

@<TRIPOS>ATOM
      1 P          20.7269   71.1708   -2.4258 P.3     1  UNL1        0.2189
      2 O          20.4934   70.7120   -0.9006 O.3     1  UNL1       -0.4371
      3 O          21.5997   70.1904   -3.1085 O.2     1  UNL1       -0.5170
      4 O          19.3091   71.2479   -3.1859 O.3     1  UNL1       -0.3112
      5 C          18.0562   71.1743   -2.5031 C.3     1  UNL1        0.1811
      6 C          16.7352   70.5438   -5.7885 C.3     1  UNL1        0.2383
      7 C          16.8143   69.1452   -5.1252 C.3     1  UNL1        0.1895
      8 O          15.7857   68.2864   -5.6216 O.3     1  UNL1       -0.3779
      9 C          16.5814   69.4800   -3.6315 C.3     1  UNL1        0.1713
     10 C          16.9313   70.9763   -3.5221 C.3     1  UNL1        0.1764
     11 O          17.3661   71.4102   -4.8206 O.3     1  UNL1       -0.3308
     12 O          15.2153   69.2581   -3.2777 O.3     1  UNL1       -0.3794
     13 H          15.7939   67.3995   -5.2369 H       1  UNL1        0.2106
     14 H          14.9242   68.3425   -3.3845 H       1  UNL1        0.2105
     15 N          17.4743   70.5575   -7.0529 N.ar    1  UNL1       -0.2551
     16 C          16.8021   70.5855   -8.2174 C.ar    1  UNL1        0.3323
     17 N          17.4555   70.5985   -9.3944 N.ar    1  UNL1       -0.2743
     18 C          18.8037   70.5854   -9.4224 C.ar    1  UNL1        0.2626
     19 C          19.5240   70.5571   -8.2040 C.ar    1  UNL1        0.0795
     20 C          18.8432   70.5488   -7.0387 C.ar    1  UNL1        0.0869
     21 O          15.5863   70.5977   -8.2073 O.2     1  UNL1       -0.2464
     22 O          19.3962   70.5976  -10.4869 O.2     1  UNL1       -0.2670
     23 H          16.9554   70.6174  -10.2248 H       1  UNL1        0.1734
     24 O          21.4271   72.6208   -2.4492 O.3     1  UNL1       -0.2703
     25 P          20.9411   74.1034   -2.0508 P.3     1  UNL1        0.2208
     26 O          22.1432   75.1463   -2.2981 O.3     1  UNL1       -0.4371
     27 O          19.7800   74.4831   -2.8851 O.2     1  UNL1       -0.5170
     28 O          20.5180   74.1301   -0.4974 O.3     1  UNL1       -0.2865
     29 C          21.3678   74.6391    0.5322 C.3     1  UNL1        0.2611
     30 C          21.5800   73.5620    1.5988 C.3     1  UNL1        0.1582
     31 C          20.2316   73.2155    2.2376 C.3     1  UNL1        0.1625
     32 C          19.6100   74.4900    2.8153 C.3     1  UNL1        0.1686
     33 C          19.4736   75.5315    1.7014 C.3     1  UNL1        0.1760
     34 O          20.4305   72.2638    3.2854 O.3     1  UNL1       -0.3801
     35 O          20.4498   75.0042    3.8505 O.3     1  UNL1       -0.3794
     36 O          20.7580   75.7855    1.1291 O.3     1  UNL1       -0.3263
     37 H          19.6163   71.9979    3.7344 H       1  UNL1        0.2105
     38 H          20.1168   75.8140    4.2621 H       1  UNL1        0.2105
     39 C          23.4806   72.2723    0.7850 C.2     1  UNL1        0.2231
     40 C          24.0672   71.0407    0.1466 C.3     1  UNL1        0.0946
     41 N          22.1499   72.3638    0.9776 N.am    1  UNL1       -0.2994
     42 O          24.2060   73.1831    1.1261 O.2     1  UNL1       -0.2751
     43 H          21.5694   71.6363    0.7040 H       1  UNL1        0.1496
     44 C          18.9084   76.8287    2.2830 C.3     1  UNL1        0.1693
     45 O          18.0303   76.5224    3.3681 O.3     1  UNL1       -0.3794
     46 H          17.6343   77.2994    3.7858 H       1  UNL1        0.2105
@<TRIPOS>BOND
     1    29    30    1
     2    30    41    1
     3    30    31    1
     4    31    34    1
     5    31    32    1
     6    32    35    1
     7    32    33    1
     8    33    36    1
     9    33    44    1
    10    39    40    1
    11    39    42    2
    12    39    41   am
    13    41    43    1
    14    29    28    1
    15    34    37    1
    16    35    38    1
    17    29    36    1
    18    44    45    1
    19    45    46    1
    20    15     6    1
    21    15    16   ar
    22    16    21    2
    23    16    17   ar
    24    17    23    1
    25    17    18   ar
    26    18    19   ar
    27    19    20   ar
    28    15    20   ar
    29    18    22    2
    30     6     7    1
    31     6    11    1
    32     7     9    1
    33     7     8    1
    34     8    13    1
    35     9    10    1
    36     9    12    1
    37    10     5    1
    38    10    11    1
    39    12    14    1
    40     5     4    1
    41     4     1    1
    42     1     2    1
    43     1    24    1
    44     1     3    2
    45    24    25    1
    46    28    25    1
    47    25    26    1
    48    25    27    2
@<TRIPOS>MOLECULE
UD2
 46 48 0 0 0
SMALL
GASTEIGER

@<TRIPOS>ATOM
      1 P          23.2718   74.1908   -4.5438 P.3     1  UNL1        0.2189
      2 O          24.8321   74.1878   -4.1477 O.3     1  UNL1       -0.4371
      3 O          22.7372   75.5660   -4.4347 O.2     1  UNL1       -0.5170
      4 O          23.1015   73.6671   -6.0572 O.3     1  UNL1       -0.3112
      5 C          22.4405   72.4440   -6.3866 C.3     1  UNL1        0.1811
      6 C          18.9399   72.0478   -7.1114 C.3     1  UNL1        0.2383
      7 C          18.9971   73.2121   -6.0900 C.3     1  UNL1        0.1895
      8 O          17.9293   74.1359   -6.3093 O.3     1  UNL1       -0.3779
      9 C          20.3648   73.8617   -6.4134 C.3     1  UNL1        0.1713
     10 C          21.1457   72.7519   -7.1427 C.3     1  UNL1        0.1764
     11 O          20.3070   71.5860   -7.1705 O.3     1  UNL1       -0.3308
     12 O          20.1899   74.9942   -7.2666 O.3     1  UNL1       -0.3794
     13 H          17.9219   74.8820   -5.6946 H       1  UNL1        0.2106
     14 H          19.6549   75.7002   -6.8796 H       1  UNL1        0.2105
     15 N          18.0557   70.9835   -6.6314 N.ar    1  UNL1       -0.2551
     16 C          16.9649   70.6510   -7.3445 C.ar    1  UNL1        0.3323
     17 N          16.1347   69.6770   -6.9271 N.ar    1  UNL1       -0.2743
     18 C          16.3881   69.0145   -5.7801 C.ar    1  UNL1        0.2626
     19 C          17.5333   69.3534   -5.0201 C.ar    1  UNL1        0.0795
     20 C          18.3506   70.3312   -5.4645 C.ar    1  UNL1        0.0869
     21 O          16.7242   71.2398   -8.3807 O.2     1  UNL1       -0.2464
     22 O          15.6377   68.1324   -5.4015 O.2     1  UNL1       -0.2670
     23 H          15.3520   69.4507   -7.4527 H       1  UNL1        0.1734
     24 O          22.4627   73.2194   -3.5463 O.3     1  UNL1       -0.2703
     25 P          22.7982   71.8114   -2.8407 P.3     1  UNL1        0.2208
     26 O          21.6628   70.7355   -3.2243 O.3     1  UNL1       -0.4371
     27 O          24.1149   71.3261   -3.3087 O.2     1  UNL1       -0.5170
     28 O          22.8347   72.0071   -1.2429 O.3     1  UNL1       -0.2865
     29 C          22.4849   73.2345   -0.6008 C.3     1  UNL1        0.2611
     30 C          22.5993   73.0685    0.9165 C.3     1  UNL1        0.1582
     31 C          21.6043   72.0005    1.3810 C.3     1  UNL1        0.1625
     32 C          20.1940   72.4085    0.9464 C.3     1  UNL1        0.1686
     33 C          20.1723   72.6000   -0.5724 C.3     1  UNL1        0.1760
     34 O          21.6522   71.8910    2.8054 O.3     1  UNL1       -0.3801
     35 O          19.8320   73.6328    1.5879 O.3     1  UNL1       -0.3794
     36 O          21.1414   73.5834   -0.9408 O.3     1  UNL1       -0.3263
     37 H          21.0465   71.2307    3.1693 H       1  UNL1        0.2105
     38 H          18.9482   73.9520    1.3574 H       1  UNL1        0.2105
     39 C          24.2527   71.3434    1.3941 C.2     1  UNL1        0.2231
     40 C          25.6523   70.9149    1.7490 C.3     1  UNL1        0.0946
     41 N          23.9609   72.6524    1.2619 N.am    1  UNL1       -0.2994
     42 O          23.3868   70.5100    1.2272 O.2     1  UNL1       -0.2751
     43 H          24.6526   73.3192    1.3962 H       1  UNL1        0.1496
     44 C          18.7816   73.0658   -1.0077 C.3     1  UNL1        0.1693
     45 O          18.9075   74.0296   -2.0553 O.3     1  UNL1       -0.3794
     46 H          18.0630   74.3696   -2.3813 H       1  UNL1        0.2105
@<TRIPOS>BOND
     1    29    30    1
     2    30    41    1
     3    30    31    1
     4    31    34    1
     5    31    32    1
     6    32    35    1
     7    32    33    1
     8    33    36    1
     9    33    44    1
    10    39    40    1
    11    39    42    2
    12    39    41   am
    13    41    43    1
    14    29    28    1
    15    34    37    1
    16    35    38    1
    17    29    36    1
    18    44    45    1
    19    45    46    1
    20    15     6    1
    21    15    16   ar
    22    16    21    2
    23    16    17   ar
    24    17    23    1
    25    17    18   ar
    26    18    19   ar
    27    19    20   ar
    28    15    20   ar
    29    18    22    2
    30     6     7    1
    31     6    11    1
    32     7     9    1
    33     7     8    1
    34     8    13    1
    35     9    10    1
    36     9    12    1
    37    10     5    1
    38    10    11    1
    39    12    14    1
    40     5     4    1
    41     4     1    1
    42     1     2    1
    43     1    24    1
    44     1     3    2
    45    24    25    1
    46    28    25    1
    47    25    26    1
    48    25    27    2
@<TRIPOS>MOLECULE
UD2
 46 48 0 0 0
SMALL
GASTEIGER

@<TRIPOS>ATOM
      1 P          22.5433   71.2099   -2.6064 P.3     1  UNL1        0.2189
      2 O          24.0066   70.9295   -3.2158 O.3     1  UNL1       -0.4371
      3 O          22.1220   72.5867   -2.9468 O.2     1  UNL1       -0.5170
      4 O          21.4931   70.1584   -3.2270 O.3     1  UNL1       -0.3112
      5 C          20.6349   70.4733   -4.3251 C.3     1  UNL1        0.1811
      6 C          17.1436   71.2575   -4.6896 C.3     1  UNL1        0.2383
      7 C          17.2175   69.7190   -4.8618 C.3     1  UNL1        0.1895
      8 O          16.0179   69.0958   -4.3990 O.3     1  UNL1       -0.3779
      9 C          18.4176   69.3477   -3.9566 C.3     1  UNL1        0.1713
     10 C          19.2043   70.6647   -3.8152 C.3     1  UNL1        0.1764
     11 O          18.5303   71.6532   -4.6102 O.3     1  UNL1       -0.3308
     12 O          17.9595   68.8987   -2.6801 O.3     1  UNL1       -0.3794
     13 H          16.0156   68.1330   -4.4864 H       1  UNL1        0.2106
     14 H          17.4089   68.1050   -2.7158 H       1  UNL1        0.2105
     15 N          16.4958   71.8758   -5.8485 N.ar    1  UNL1       -0.2551
     16 C          16.6602   71.3372   -7.0699 C.ar    1  UNL1        0.3323
     17 N          16.0768   71.8845   -8.1526 N.ar    1  UNL1       -0.2743
     18 C          15.3119   72.9879   -8.0266 C.ar    1  UNL1        0.2626
     19 C          15.1295   73.5648   -6.7467 C.ar    1  UNL1        0.0795
     20 C          15.7228   72.9926   -5.6780 C.ar    1  UNL1        0.0869
     21 O          17.3471   70.3421   -7.1984 O.2     1  UNL1       -0.2464
     22 O          14.7830   73.4840   -9.0057 O.2     1  UNL1       -0.2670
     23 H          16.2068   71.4841   -9.0261 H       1  UNL1        0.1734
     24 O          22.5871   71.0420   -1.0054 O.3     1  UNL1       -0.2703
     25 P          21.4804   71.1430    0.1599 P.3     1  UNL1        0.2208
     26 O          20.0108   71.1788   -0.4980 O.3     1  UNL1       -0.4371
     27 O          21.5928   69.9673    1.0507 O.2     1  UNL1       -0.5170
     28 O          21.7200   72.4877    1.0125 O.3     1  UNL1       -0.2865
     29 C          21.9385   72.4857    2.4244 C.3     1  UNL1        0.2611
     30 C          22.0586   73.9271    2.9252 C.3     1  UNL1        0.1582
     31 C          23.2743   74.5874    2.2674 C.3     1  UNL1        0.1625
     32 C          24.5232   73.7585    2.5795 C.3     1  UNL1        0.1686
     33 C          24.3080   72.3232    2.0919 C.3     1  UNL1        0.1760
     34 O          23.4372   75.9099    2.7847 O.3     1  UNL1       -0.3801
     35 O          24.7540   73.7548    3.9895 O.3     1  UNL1       -0.3794
     36 O          23.1450   71.7784    2.7183 O.3     1  UNL1       -0.3263
     37 H          24.1898   76.3882    2.4105 H       1  UNL1        0.2105
     38 H          25.5313   73.2465    4.2602 H       1  UNL1        0.2105
     39 C          20.2952   75.5217    3.4591 C.2     1  UNL1        0.2231
     40 C          19.0493   76.2865    3.0965 C.3     1  UNL1        0.0946
     41 N          20.8466   74.6705    2.5718 N.am    1  UNL1       -0.2994
     42 O          20.8030   75.6716    4.5508 O.2     1  UNL1       -0.2751
     43 H          20.4404   74.5496    1.6992 H       1  UNL1        0.1496
     44 C          25.5278   71.4737    2.4535 C.3     1  UNL1        0.1693
     45 O          25.1415   70.1013    2.5508 O.3     1  UNL1       -0.3794
     46 H          25.8666   69.5031    2.7778 H       1  UNL1        0.2105
@<TRIPOS>BOND
     1    29    30    1
     2    30    41    1
     3    30    31    1
     4    31    34    1
     5    31    32    1
     6    32    35    1
     7    32    33    1
     8    33    36    1
     9    33    44    1
    10    39    40    1
    11    39    42    2
    12    39    41   am
    13    41    43    1
    14    29    28    1
    15    34    37    1
    16    35    38    1
    17    29    36    1
    18    44    45    1
    19    45    46    1
    20    15     6    1
    21    15    16   ar
    22    16    21    2
    23    16    17   ar
    24    17    23    1
    25    17    18   ar
    26    18    19   ar
    27    19    20   ar
    28    15    20   ar
    29    18    22    2
    30     6     7    1
    31     6    11    1
    32     7     9    1
    33     7     8    1
    34     8    13    1
    35     9    10    1
    36     9    12    1
    37    10     5    1
    38    10    11    1
    39    12    14    1
    40     5     4    1
    41     4     1    1
    42     1     2    1
    43     1    24    1
    44     1     3    2
    45    24    25    1
    46    28    25    1
    47    25    26    1
    48    25    27    2
@<TRIPOS>MOLECULE
UD2
 46 48 0 0 0
SMALL
GASTEIGER

@<TRIPOS>ATOM
      1 P          23.1169   73.4178   -4.4856 P.3     1  UNL1        0.2189
      2 O          23.2965   74.5322   -5.6333 O.3     1  UNL1       -0.4371
      3 O          24.4274   72.7986   -4.1889 O.2     1  UNL1       -0.5170
      4 O          22.5358   74.1095   -3.1524 O.3     1  UNL1       -0.3112
      5 C          21.4932   73.5288   -2.3667 C.3     1  UNL1        0.1811
      6 C          23.2899   71.5559    0.0449 C.3     1  UNL1        0.2383
      7 C          21.8512   71.6511    0.6135 C.3     1  UNL1        0.1895
      8 O          21.5220   70.4823    1.3666 O.3     1  UNL1       -0.3779
      9 C          20.9972   71.7366   -0.6752 C.3     1  UNL1        0.1713
     10 C          21.9882   72.2171   -1.7525 C.3     1  UNL1        0.1764
     11 O          23.2539   72.4269   -1.1065 O.3     1  UNL1       -0.3308
     12 O          20.4746   70.4508   -1.0135 O.3     1  UNL1       -0.3794
     13 H          20.6318   70.4948    1.7435 H       1  UNL1        0.2106
     14 H          19.8901   70.0738   -0.3421 H       1  UNL1        0.2105
     15 N          24.2651   72.0370    1.0260 N.ar    1  UNL1       -0.2551
     16 C          24.9312   71.1544    1.7916 C.ar    1  UNL1        0.3323
     17 N          25.8329   71.5683    2.7014 N.ar    1  UNL1       -0.2743
     18 C          26.0843   72.8840    2.8579 C.ar    1  UNL1        0.2626
     19 C          25.3912   73.8241    2.0579 C.ar    1  UNL1        0.0795
     20 C          24.4957   73.3806    1.1508 C.ar    1  UNL1        0.0869
     21 O          24.7148   69.9650    1.6612 O.2     1  UNL1       -0.2464
     22 O          26.9005   73.2599    3.6807 O.2     1  UNL1       -0.2670
     23 H          26.3034   70.9187    3.2461 H       1  UNL1        0.1734
     24 O          22.0904   72.2853   -4.9928 O.3     1  UNL1       -0.2703
     25 P          20.8679   72.2732   -6.0408 P.3     1  UNL1        0.2208
     26 O          20.5525   73.7799   -6.5142 O.3     1  UNL1       -0.4371
     27 O          21.2340   71.4537   -7.2168 O.2     1  UNL1       -0.5170
     28 O          19.5627   71.6475   -5.3354 O.3     1  UNL1       -0.2865
     29 C          19.1438   70.2958   -5.5325 C.3     1  UNL1        0.2611
     30 C          17.9789   70.2611   -6.5247 C.3     1  UNL1        0.1582
     31 C          16.7947   71.0338   -5.9358 C.3     1  UNL1        0.1625
     32 C          16.4226   70.4226   -4.5821 C.3     1  UNL1        0.1686
     33 C          17.6478   70.4512   -3.6645 C.3     1  UNL1        0.1760
     34 O          15.6778   70.9445   -6.8233 O.3     1  UNL1       -0.3801
     35 O          15.9965   69.0718   -4.7689 O.3     1  UNL1       -0.3794
     36 O          18.7220   69.7415   -4.2846 O.3     1  UNL1       -0.3263
     37 H          14.8908   71.4131   -6.5130 H       1  UNL1        0.2105
     38 H          15.7453   68.6211   -3.9505 H       1  UNL1        0.2105
     39 C          18.5575   70.1263   -8.8879 C.2     1  UNL1        0.2231
     40 C          18.9812   70.7652  -10.1844 C.3     1  UNL1        0.0946
     41 N          18.3913   70.8832   -7.7854 N.am    1  UNL1       -0.2994
     42 O          18.3656   68.9294   -8.8355 O.2     1  UNL1       -0.2751
     43 H          18.5455   71.8401   -7.8266 H       1  UNL1        0.1496
     44 C          17.3010   69.7880   -2.3303 C.3     1  UNL1        0.1693
     45 O          17.4245   68.3698   -2.4560 O.3     1  UNL1       -0.3794
     46 H          17.2191   67.8832   -1.6461 H       1  UNL1        0.2105
@<TRIPOS>BOND
     1    29    30    1
     2    30    41    1
     3    30    31    1
     4    31    34    1
     5    31    32    1
     6    32    35    1
     7    32    33    1
     8    33    36    1
     9    33    44    1
    10    39    40    1
    11    39    42    2
    12    39    41   am
    13    41    43    1
    14    29    28    1
    15    34    37    1
    16    35    38    1
    17    29    36    1
    18    44    45    1
    19    45    46    1
    20    15     6    1
    21    15    16   ar
    22    16    21    2
    23    16    17   ar
    24    17    23    1
    25    17    18   ar
    26    18    19   ar
    27    19    20   ar
    28    15    20   ar
    29    18    22    2
    30     6     7    1
    31     6    11    1
    32     7     9    1
    33     7     8    1
    34     8    13    1
    35     9    10    1
    36     9    12    1
    37    10     5    1
    38    10    11    1
    39    12    14    1
    40     5     4    1
    41     4     1    1
    42     1     2    1
    43     1    24    1
    44     1     3    2
    45    24    25    1
    46    28    25    1
    47    25    26    1
    48    25    27    2
@<TRIPOS>MOLECULE
UD2
 46 48 0 0 0
SMALL
GASTEIGER

@<TRIPOS>ATOM
      1 P          15.8452   70.9314   -2.6353 P.3     1  UNL1        0.2189
      2 O          14.7862   72.1419   -2.5666 O.3     1  UNL1       -0.4371
      3 O          17.0791   71.3131   -1.9138 O.2     1  UNL1       -0.5170
      4 O          15.2069   69.6207   -1.9511 O.3     1  UNL1       -0.3112
      5 C          14.6877   69.6135   -0.6199 C.3     1  UNL1        0.1811
      6 C          12.7220   67.2901    1.2968 C.3     1  UNL1        0.2383
      7 C          11.7325   68.4234    0.9246 C.3     1  UNL1        0.1895
      8 O          10.4036   67.9161    0.7889 O.3     1  UNL1       -0.3779
      9 C          12.2837   68.9008   -0.4413 C.3     1  UNL1        0.1713
     10 C          13.7469   68.4187   -0.4462 C.3     1  UNL1        0.1764
     11 O          13.9923   67.7833    0.8185 O.3     1  UNL1       -0.3308
     12 O          11.5545   68.2982   -1.5118 O.3     1  UNL1       -0.3794
     13 H           9.7478   68.5875    0.5571 H       1  UNL1        0.2106
     14 H          10.6138   68.5206   -1.5220 H       1  UNL1        0.2105
     15 N          12.7580   67.0926    2.7476 N.ar    1  UNL1       -0.2551
     16 C          12.5529   68.1385    3.5678 C.ar    1  UNL1        0.3323
     17 N          12.5805   67.9861    4.9050 N.ar    1  UNL1       -0.2743
     18 C          12.8141   66.7728    5.4452 C.ar    1  UNL1        0.2626
     19 C          13.0306   65.6628    4.5936 C.ar    1  UNL1        0.0795
     20 C          12.9932   65.8438    3.2567 C.ar    1  UNL1        0.0869
     21 O          12.3408   69.2383    3.0947 O.2     1  UNL1       -0.2464
     22 O          12.8389   66.6334    6.6553 O.2     1  UNL1       -0.2670
     23 H          12.4318   68.7511    5.4820 H       1  UNL1        0.1734
     24 O          16.1991   70.6143   -4.1740 O.3     1  UNL1       -0.2703
     25 P          17.1412   69.5316   -4.9041 P.3     1  UNL1        0.2208
     26 O          17.6726   68.4656   -3.8201 O.3     1  UNL1       -0.4371
     27 O          16.3658   68.8272   -5.9486 O.2     1  UNL1       -0.5170
     28 O          18.3958   70.2810   -5.5801 O.3     1  UNL1       -0.2865
     29 C          18.6166   71.6879   -5.4648 C.3     1  UNL1        0.2611
     30 C          19.5615   72.1499   -6.5767 C.3     1  UNL1        0.1582
     31 C          20.9143   71.4514   -6.4084 C.3     1  UNL1        0.1625
     32 C          21.4654   71.7588   -5.0134 C.3     1  UNL1        0.1686
     33 C          20.4469   71.3117   -3.9614 C.3     1  UNL1        0.1760
     34 O          21.8261   71.9321   -7.3988 O.3     1  UNL1       -0.3801
     35 O          21.6953   73.1635   -4.8895 O.3     1  UNL1       -0.3794
     36 O          19.2026   71.9749   -4.1933 O.3     1  UNL1       -0.3263
     37 H          22.7047   71.5309   -7.3516 H       1  UNL1        0.2105
     38 H          22.0451   73.4311   -4.0281 H       1  UNL1        0.2105
     39 C          19.3442   70.6525   -8.4868 C.2     1  UNL1        0.2231
     40 C          18.7569   70.2946   -9.8267 C.3     1  UNL1        0.0946
     41 N          18.9899   71.8026   -7.8802 N.am    1  UNL1       -0.2994
     42 O          20.1370   69.9052   -7.9526 O.2     1  UNL1       -0.2751
     43 H          18.3569   72.4008   -8.3074 H       1  UNL1        0.1496
     44 C          20.9639   71.6697   -2.5668 C.3     1  UNL1        0.1693
     45 O          22.3915   71.6045   -2.5559 O.3     1  UNL1       -0.3794
     46 H          22.7891   71.8199   -1.7012 H       1  UNL1        0.2105
@<TRIPOS>BOND
     1    29    30    1
     2    30    41    1
     3    30    31    1
     4    31    34    1
     5    31    32    1
     6    32    35    1
     7    32    33    1
     8    33    36    1
     9    33    44    1
    10    39    40    1
    11    39    42    2
    12    39    41   am
    13    41    43    1
    14    29    28    1
    15    34    37    1
    16    35    38    1
    17    29    36    1
    18    44    45    1
    19    45    46    1
    20    15     6    1
    21    15    16   ar
    22    16    21    2
    23    16    17   ar
    24    17    23    1
    25    17    18   ar
    26    18    19   ar
    27    19    20   ar
    28    15    20   ar
    29    18    22    2
    30     6     7    1
    31     6    11    1
    32     7     9    1
    33     7     8    1
    34     8    13    1
    35     9    10    1
    36     9    12    1
    37    10     5    1
    38    10    11    1
    39    12    14    1
    40     5     4    1
    41     4     1    1
    42     1     2    1
    43     1    24    1
    44     1     3    2
    45    24    25    1
    46    28    25    1
    47    25    26    1
    48    25    27    2
@<TRIPOS>MOLECULE
UD2
 46 48 0 0 0
SMALL
GASTEIGER

@<TRIPOS>ATOM
      1 P          22.1748   72.7121   -6.5456 P.3     1  UNL1        0.2189
      2 O          23.0521   73.3540   -7.7329 O.3     1  UNL1       -0.4371
      3 O          21.2469   73.7324   -6.0100 O.2     1  UNL1       -0.5170
      4 O          21.3302   71.4652   -7.1164 O.3     1  UNL1       -0.3112
      5 C          20.6059   71.5154   -8.3469 C.3     1  UNL1        0.1811
      6 C          17.5832   70.1051   -7.0012 C.3     1  UNL1        0.2383
      7 C          17.0999   71.0916   -8.0946 C.3     1  UNL1        0.1895
      8 O          15.8794   70.6406   -8.6850 O.3     1  UNL1       -0.3779
      9 C          18.2612   71.0380   -9.1174 C.3     1  UNL1        0.1713
     10 C          19.4559   70.5061   -8.3030 C.3     1  UNL1        0.1764
     11 O          19.0081   70.3341   -6.9490 O.3     1  UNL1       -0.3308
     12 O          17.9448   70.1429  -10.1848 O.3     1  UNL1       -0.3794
     13 H          15.5364   71.2249   -9.3747 H       1  UNL1        0.2106
     14 H          17.1644   70.3981  -10.6950 H       1  UNL1        0.2105
     15 N          16.9622   70.4189   -5.7125 N.ar    1  UNL1       -0.2551
     16 C          16.4608   69.4269   -4.9552 C.ar    1  UNL1        0.3323
     17 N          15.8844   69.6862   -3.7667 N.ar    1  UNL1       -0.2743
     18 C          15.8026   70.9539   -3.3142 C.ar    1  UNL1        0.2626
     19 C          16.3272   72.0078   -4.1005 C.ar    1  UNL1        0.0795
     20 C          16.9034   71.7184   -5.2862 C.ar    1  UNL1        0.0869
     21 O          16.5278   68.2790   -5.3506 O.2     1  UNL1       -0.2464
     22 O          15.2815   71.1899   -2.2385 O.2     1  UNL1       -0.2670
     23 H          15.5269   68.9593   -3.2339 H       1  UNL1        0.1734
     24 O          23.1517   72.2046   -5.3702 O.3     1  UNL1       -0.2703
     25 P          23.4997   72.7459   -3.8941 P.3     1  UNL1        0.2208
     26 O          22.1328   73.0525   -3.0994 O.3     1  UNL1       -0.4371
     27 O          24.2756   71.7207   -3.1626 O.2     1  UNL1       -0.5170
     28 O          24.3686   74.0966   -4.0090 O.3     1  UNL1       -0.2865
     29 C          23.7855   75.4009   -3.9957 C.3     1  UNL1        0.2611
     30 C          24.6181   76.3421   -4.8696 C.3     1  UNL1        0.1582
     31 C          26.0280   76.4569   -4.2818 C.3     1  UNL1        0.1625
     32 C          25.9277   76.9457   -2.8342 C.3     1  UNL1        0.1686
     33 C          25.0444   75.9809   -2.0386 C.3     1  UNL1        0.1760
     34 O          26.7905   77.3910   -5.0496 O.3     1  UNL1       -0.3801
     35 O          25.3507   78.2525   -2.8103 O.3     1  UNL1       -0.3794
     36 O          23.7582   75.8964   -2.6556 O.3     1  UNL1       -0.3263
     37 H          27.6962   77.5129   -4.7333 H       1  UNL1        0.2105
     38 H          25.2561   78.6252   -1.9225 H       1  UNL1        0.2105
     39 C          24.6220   76.6354   -7.2886 C.2     1  UNL1        0.2231
     40 C          24.7035   76.0836   -8.6877 C.3     1  UNL1        0.0946
     41 N          24.6972   75.8046   -6.2302 N.am    1  UNL1       -0.2994
     42 O          24.4887   77.8287   -7.1137 O.2     1  UNL1       -0.2751
     43 H          24.8028   74.8504   -6.3696 H       1  UNL1        0.1496
     44 C          24.8904   76.4946   -0.6058 C.3     1  UNL1        0.1693
     45 O          25.1108   77.9063   -0.5788 O.3     1  UNL1       -0.3794
     46 H          25.0291   78.3010    0.3001 H       1  UNL1        0.2105
@<TRIPOS>BOND
     1    29    30    1
     2    30    41    1
     3    30    31    1
     4    31    34    1
     5    31    32    1
     6    32    35    1
     7    32    33    1
     8    33    36    1
     9    33    44    1
    10    39    40    1
    11    39    42    2
    12    39    41   am
    13    41    43    1
    14    29    28    1
    15    34    37    1
    16    35    38    1
    17    29    36    1
    18    44    45    1
    19    45    46    1
    20    15     6    1
    21    15    16   ar
    22    16    21    2
    23    16    17   ar
    24    17    23    1
    25    17    18   ar
    26    18    19   ar
    27    19    20   ar
    28    15    20   ar
    29    18    22    2
    30     6     7    1
    31     6    11    1
    32     7     9    1
    33     7     8    1
    34     8    13    1
    35     9    10    1
    36     9    12    1
    37    10     5    1
    38    10    11    1
    39    12    14    1
    40     5     4    1
    41     4     1    1
    42     1     2    1
    43     1    24    1
    44     1     3    2
    45    24    25    1
    46    28    25    1
    47    25    26    1
    48    25    27    2
@<TRIPOS>MOLECULE
UD2
 46 48 0 0 0
SMALL
GASTEIGER

@<TRIPOS>ATOM
      1 P          20.1657   73.7525   -0.2267 P.3     1  UNL1        0.2189
      2 O          18.5663   73.5835   -0.1574 O.3     1  UNL1       -0.4371
      3 O          20.5022   75.1722   -0.4718 O.2     1  UNL1       -0.5170
      4 O          20.8161   73.2799    1.1688 O.3     1  UNL1       -0.3112
      5 C          22.0570   73.7900    1.6601 C.3     1  UNL1        0.1811
      6 C          25.2936   72.2672    2.0371 C.3     1  UNL1        0.2383
      7 C          24.3224   71.3040    2.7659 C.3     1  UNL1        0.1895
      8 O          24.7878   69.9553    2.6882 O.3     1  UNL1       -0.3779
      9 C          23.0156   71.4850    1.9555 C.3     1  UNL1        0.1713
     10 C          23.1921   72.8461    1.2556 C.3     1  UNL1        0.1764
     11 O          24.4527   73.3865    1.6825 O.3     1  UNL1       -0.3308
     12 O          22.8780   70.4402    0.9910 O.3     1  UNL1       -0.3794
     13 H          24.2141   69.3149    3.1302 H       1  UNL1        0.2106
     14 H          22.8223   69.5546    1.3745 H       1  UNL1        0.2105
     15 N          26.3685   72.6935    2.9359 N.ar    1  UNL1       -0.2551
     16 C          27.4858   71.9517    3.0375 C.ar    1  UNL1        0.3323
     17 N          28.4895   72.3193    3.8557 N.ar    1  UNL1       -0.2743
     18 C          28.3889   73.4464    4.5893 C.ar    1  UNL1        0.2626
     19 C          27.2189   74.2373    4.4915 C.ar    1  UNL1        0.0795
     20 C          26.2301   73.8470    3.6600 C.ar    1  UNL1        0.0869
     21 O          27.5903   70.9331    2.3817 O.2     1  UNL1       -0.2464
     22 O          29.2969   73.7805    5.3300 O.2     1  UNL1       -0.2670
     23 H          29.2877   71.7723    3.9178 H       1  UNL1        0.1734
     24 O          20.7499   72.8476   -1.4239 O.3     1  UNL1       -0.2703
     25 P          20.6145   71.2922   -1.8180 P.3     1  UNL1        0.2208
     26 O          21.9696   70.8013   -2.5367 O.3     1  UNL1       -0.4371
     27 O          20.3873   70.4912   -0.5953 O.2     1  UNL1       -0.5170
     28 O          19.3727   71.0999   -2.8247 O.3     1  UNL1       -0.2865
     29 C          19.0407   69.8444   -3.4204 C.3     1  UNL1        0.2611
     30 C          18.4431   70.0798   -4.8097 C.3     1  UNL1        0.1582
     31 C          17.1476   70.8850   -4.6691 C.3     1  UNL1        0.1625
     32 C          16.1880   70.1305   -3.7448 C.3     1  UNL1        0.1686
     33 C          16.8727   69.8931   -2.3961 C.3     1  UNL1        0.1760
     34 O          16.5441   71.0465   -5.9548 O.3     1  UNL1       -0.3801
     35 O          15.8450   68.8751   -4.3344 O.3     1  UNL1       -0.3794
     36 O          18.0860   69.1665   -2.6010 O.3     1  UNL1       -0.3263
     37 H          15.7180   71.5489   -5.9407 H       1  UNL1        0.2105
     38 H          15.2387   68.3420   -3.8013 H       1  UNL1        0.2105
     39 C          19.3368   72.1729   -5.6805 C.2     1  UNL1        0.2231
     40 C          20.3176   72.9422   -6.5259 C.3     1  UNL1        0.0946
     41 N          19.3974   70.8274   -5.6325 N.am    1  UNL1       -0.2994
     42 O          18.4914   72.7643   -5.0420 O.2     1  UNL1       -0.2751
     43 H          20.0725   70.3541   -6.1436 H       1  UNL1        0.1496
     44 C          15.9427   69.0874   -1.4871 C.3     1  UNL1        0.1693
     45 O          14.5872   69.2879   -1.8932 O.3     1  UNL1       -0.3794
     46 H          13.9408   68.8059   -1.3596 H       1  UNL1        0.2105
@<TRIPOS>BOND
     1    29    30    1
     2    30    41    1
     3    30    31    1
     4    31    34    1
     5    31    32    1
     6    32    35    1
     7    32    33    1
     8    33    36    1
     9    33    44    1
    10    39    40    1
    11    39    42    2
    12    39    41   am
    13    41    43    1
    14    29    28    1
    15    34    37    1
    16    35    38    1
    17    29    36    1
    18    44    45    1
    19    45    46    1
    20    15     6    1
    21    15    16   ar
    22    16    21    2
    23    16    17   ar
    24    17    23    1
    25    17    18   ar
    26    18    19   ar
    27    19    20   ar
    28    15    20   ar
    29    18    22    2
    30     6     7    1
    31     6    11    1
    32     7     9    1
    33     7     8    1
    34     8    13    1
    35     9    10    1
    36     9    12    1
    37    10     5    1
    38    10    11    1
    39    12    14    1
    40     5     4    1
    41     4     1    1
    42     1     2    1
    43     1    24    1
    44     1     3    2
    45    24    25    1
    46    28    25    1
    47    25    26    1
    48    25    27    2
@<TRIPOS>MOLECULE
UD2
 46 48 0 0 0
SMALL
GASTEIGER

@<TRIPOS>ATOM
      1 P          22.1628   72.9788   -6.3416 P.3     1  UNL1        0.2189
      2 O          23.0715   73.3220   -7.6252 O.3     1  UNL1       -0.4371
      3 O          21.6435   74.2335   -5.7543 O.2     1  UNL1       -0.5170
      4 O          20.9294   72.0459   -6.7913 O.3     1  UNL1       -0.3112
      5 C          20.8096   71.4957   -8.1045 C.3     1  UNL1        0.1811
      6 C          17.7556   70.0317   -6.8936 C.3     1  UNL1        0.2383
      7 C          17.2987   71.0634   -7.9561 C.3     1  UNL1        0.1895
      8 O          16.0933   70.6382   -8.5947 O.3     1  UNL1       -0.3779
      9 C          18.4847   71.0522   -8.9515 C.3     1  UNL1        0.1713
     10 C          19.6594   70.4861   -8.1311 C.3     1  UNL1        0.1764
     11 O          19.1787   70.2576   -6.7969 O.3     1  UNL1       -0.3308
     12 O          18.1951   70.2029  -10.0630 O.3     1  UNL1       -0.3794
     13 H          15.7669   71.2511   -9.2674 H       1  UNL1        0.2106
     14 H          17.4273   70.4797  -10.5809 H       1  UNL1        0.2105
     15 N          17.1030   70.2914   -5.6084 N.ar    1  UNL1       -0.2551
     16 C          16.4470   69.2987   -4.9815 C.ar    1  UNL1        0.3323
     17 N          15.8380   69.5090   -3.7995 N.ar    1  UNL1       -0.2743
     18 C          15.8790   70.7269   -3.2221 C.ar    1  UNL1        0.2626
     19 C          16.5669   71.7808   -3.8705 C.ar    1  UNL1        0.0795
     20 C          17.1720   71.5405   -5.0527 C.ar    1  UNL1        0.0869
     21 O          16.4021   68.1953   -5.4904 O.2     1  UNL1       -0.2464
     22 O          15.3286   70.9185   -2.1521 O.2     1  UNL1       -0.2670
     23 H          15.3684   68.7825   -3.3616 H       1  UNL1        0.1734
     24 O          23.0516   72.2010   -5.2469 O.3     1  UNL1       -0.2703
     25 P          22.7936   71.7270   -3.7297 P.3     1  UNL1        0.2208
     26 O          21.5965   70.6500   -3.7007 O.3     1  UNL1       -0.4371
     27 O          24.0246   71.1099   -3.1893 O.2     1  UNL1       -0.5170
     28 O          22.3919   73.0009   -2.8305 O.3     1  UNL1       -0.2865
     29 C          23.3579   73.8641   -2.2280 C.3     1  UNL1        0.2611
     30 C          23.2667   73.7489   -0.7045 C.3     1  UNL1        0.1582
     31 C          21.8799   74.2125   -0.2482 C.3     1  UNL1        0.1625
     32 C          21.6456   75.6444   -0.7371 C.3     1  UNL1        0.1686
     33 C          21.7992   75.6865   -2.2598 C.3     1  UNL1        0.1760
     34 O          21.8109   74.1779    1.1792 O.3     1  UNL1       -0.3801
     35 O          22.6035   76.5173   -0.1355 O.3     1  UNL1       -0.3794
     36 O          23.0992   75.2141   -2.6190 O.3     1  UNL1       -0.3263
     37 H          20.9581   74.4589    1.5383 H       1  UNL1        0.2105
     38 H          22.5145   77.4432   -0.4016 H       1  UNL1        0.2105
     39 C          24.1974   72.0671    0.7931 C.2     1  UNL1        0.2231
     40 C          24.4092   70.6334    1.2035 C.3     1  UNL1        0.0946
     41 N          23.4725   72.3542   -0.3061 N.am    1  UNL1       -0.2994
     42 O          24.6796   72.9645    1.4521 O.2     1  UNL1       -0.2751
     43 H          23.0875   71.6370   -0.8338 H       1  UNL1        0.1496
     44 C          21.6255   77.1252   -2.7501 C.3     1  UNL1        0.1693
     45 O          20.6775   77.8006   -1.9210 O.3     1  UNL1       -0.3794
     46 H          20.5173   78.7200   -2.1742 H       1  UNL1        0.2105
@<TRIPOS>BOND
     1    29    30    1
     2    30    41    1
     3    30    31    1
     4    31    34    1
     5    31    32    1
     6    32    35    1
     7    32    33    1
     8    33    36    1
     9    33    44    1
    10    39    40    1
    11    39    42    2
    12    39    41   am
    13    41    43    1
    14    29    28    1
    15    34    37    1
    16    35    38    1
    17    29    36    1
    18    44    45    1
    19    45    46    1
    20    15     6    1
    21    15    16   ar
    22    16    21    2
    23    16    17   ar
    24    17    23    1
    25    17    18   ar
    26    18    19   ar
    27    19    20   ar
    28    15    20   ar
    29    18    22    2
    30     6     7    1
    31     6    11    1
    32     7     9    1
    33     7     8    1
    34     8    13    1
    35     9    10    1
    36     9    12    1
    37    10     5    1
    38    10    11    1
    39    12    14    1
    40     5     4    1
    41     4     1    1
    42     1     2    1
    43     1    24    1
    44     1     3    2
    45    24    25    1
    46    28    25    1
    47    25    26    1
    48    25    27    2
@<TRIPOS>MOLECULE
UD2
 46 48 0 0 0
SMALL
GASTEIGER

@<TRIPOS>ATOM
      1 P          20.6232   71.2012   -0.8652 P.3     1  UNL1        0.2189
      2 O          20.4318   72.7873   -0.6674 O.3     1  UNL1       -0.4371
      3 O          20.9261   70.5736    0.4399 O.2     1  UNL1       -0.5170
      4 O          19.2688   70.5680   -1.4638 O.3     1  UNL1       -0.3112
      5 C          19.2309   69.8264   -2.6845 C.3     1  UNL1        0.1811
      6 C          17.3709   70.3536   -5.7175 C.3     1  UNL1        0.2383
      7 C          17.0046   68.9122   -5.2813 C.3     1  UNL1        0.1895
      8 O          15.6766   68.5779   -5.6891 O.3     1  UNL1       -0.3779
      9 C          17.1019   69.0046   -3.7387 C.3     1  UNL1        0.1713
     10 C          17.9956   70.2348   -3.4909 C.3     1  UNL1        0.1764
     11 O          18.3951   70.7392   -4.7752 O.3     1  UNL1       -0.3308
     12 O          15.8074   69.2032   -3.1682 O.3     1  UNL1       -0.3794
     13 H          15.4011   67.6854   -5.4396 H       1  UNL1        0.2106
     14 H          15.1848   68.4849   -3.3441 H       1  UNL1        0.2105
     15 N          17.8977   70.3607   -7.0841 N.ar    1  UNL1       -0.2551
     16 C          17.0489   70.4299   -8.1251 C.ar    1  UNL1        0.3323
     17 N          17.5051   70.4379   -9.3916 N.ar    1  UNL1       -0.2743
     18 C          18.8299   70.3781   -9.6362 C.ar    1  UNL1        0.2626
     19 C          19.7348   70.3060   -8.5499 C.ar    1  UNL1        0.0795
     20 C          19.2498   70.3038   -7.2904 C.ar    1  UNL1        0.0869
     21 O          15.8518   70.4846   -7.9194 O.2     1  UNL1       -0.2464
     22 O          19.2441   70.3857  -10.7820 O.2     1  UNL1       -0.2670
     23 H          16.8793   70.4870  -10.1306 H       1  UNL1        0.1734
     24 O          21.8385   70.9302   -1.8863 O.3     1  UNL1       -0.2703
     25 P          23.1852   71.7306   -2.2589 P.3     1  UNL1        0.2208
     26 O          23.8614   72.2983   -0.9120 O.3     1  UNL1       -0.4371
     27 O          24.1305   70.8172   -2.9375 O.2     1  UNL1       -0.5170
     28 O          22.8267   72.9573   -3.2383 O.3     1  UNL1       -0.2865
     29 C          23.7693   73.5287   -4.1473 C.3     1  UNL1        0.2611
     30 C          23.7109   75.0552   -4.0518 C.3     1  UNL1        0.1582
     31 C          22.3157   75.5312   -4.4683 C.3     1  UNL1        0.1625
     32 C          22.0168   75.0262   -5.8825 C.3     1  UNL1        0.1686
     33 C          22.1405   73.5004   -5.9073 C.3     1  UNL1        0.1760
     34 O          22.2745   76.9599   -4.4527 O.3     1  UNL1       -0.3801
     35 O          22.9509   75.5966   -6.8008 O.3     1  UNL1       -0.3794
     36 O          23.4510   73.1233   -5.4802 O.3     1  UNL1       -0.3263
     37 H          21.4182   77.3311   -4.7059 H       1  UNL1        0.2105
     38 H          22.8210   75.3190   -7.7184 H       1  UNL1        0.2105
     39 C          22.9571   75.6353   -1.8084 C.2     1  UNL1        0.2231
     40 C          23.2311   76.0613   -0.3899 C.3     1  UNL1        0.0946
     41 N          23.9781   75.4698   -2.6722 N.am    1  UNL1       -0.2994
     42 O          21.8166   75.4410   -2.1741 O.2     1  UNL1       -0.2751
     43 H          24.8900   75.6260   -2.3806 H       1  UNL1        0.1496
     44 C          21.9019   72.9927   -7.3306 C.3     1  UNL1        0.1693
     45 O          23.1017   73.1323   -8.0944 O.3     1  UNL1       -0.3794
     46 H          23.0236   72.8294   -9.0094 H       1  UNL1        0.2105
@<TRIPOS>BOND
     1    29    30    1
     2    30    41    1
     3    30    31    1
     4    31    34    1
     5    31    32    1
     6    32    35    1
     7    32    33    1
     8    33    36    1
     9    33    44    1
    10    39    40    1
    11    39    42    2
    12    39    41   am
    13    41    43    1
    14    29    28    1
    15    34    37    1
    16    35    38    1
    17    29    36    1
    18    44    45    1
    19    45    46    1
    20    15     6    1
    21    15    16   ar
    22    16    21    2
    23    16    17   ar
    24    17    23    1
    25    17    18   ar
    26    18    19   ar
    27    19    20   ar
    28    15    20   ar
    29    18    22    2
    30     6     7    1
    31     6    11    1
    32     7     9    1
    33     7     8    1
    34     8    13    1
    35     9    10    1
    36     9    12    1
    37    10     5    1
    38    10    11    1
    39    12    14    1
    40     5     4    1
    41     4     1    1
    42     1     2    1
    43     1    24    1
    44     1     3    2
    45    24    25    1
    46    28    25    1
    47    25    26    1
    48    25    27    2
