@<TRIPOS>MOLECULE
UDP-glaA
 43 45 0 0 0
SMALL
GASTEIGER

@<TRIPOS>ATOM
      1 P          23.0137   71.5501   -2.5429 P.3     1  UNL1        0.2189
      2 O          23.2869   73.0731   -2.0704 O.3     1  UNL1       -0.4371
      3 O          24.1861   70.8660   -3.1830 O.2     1  UNL1       -0.5170
      4 O          21.6803   71.6573   -3.4519 O.3     1  UNL1       -0.3112
      5 C          20.8532   70.5132   -3.5788 C.3     1  UNL1        0.1811
      6 O          18.8960   71.5478   -4.5132 O.3     1  UNL1       -0.3308
      7 O          17.3634   70.1996   -2.3166 O.3     1  UNL1       -0.3794
      8 O          16.8713   68.5891   -4.4613 O.3     1  UNL1       -0.3779
      9 C          18.4923   69.7275   -3.0517 C.3     1  UNL1        0.1713
     10 C          18.0770   69.3252   -4.4510 C.3     1  UNL1        0.1895
     11 C          19.4080   70.9146   -3.3199 C.3     1  UNL1        0.1764
     12 C          17.9446   70.6724   -5.1407 C.3     1  UNL1        0.2383
     13 H          17.6838   70.4816   -1.4429 H       1  UNL1        0.2105
     14 H          17.0061   67.7989   -3.9103 H       1  UNL1        0.2106
     15 O          16.0660   69.9387   -7.1176 O.2     1  UNL1       -0.2464
     16 O          19.1595   70.4270  -10.4985 O.2     1  UNL1       -0.2670
     17 N          18.2317   70.6000   -6.5448 N.ar    1  UNL1       -0.2551
     18 N          17.6078   70.1818   -8.7998 N.ar    1  UNL1       -0.2743
     19 C          17.2175   70.2200   -7.4547 C.ar    1  UNL1        0.3323
     20 C          19.5071   70.9037   -7.0081 C.ar    1  UNL1        0.0869
     21 C          19.8634   70.8630   -8.2938 C.ar    1  UNL1        0.0795
     22 C          18.8637   70.4747   -9.3084 C.ar    1  UNL1        0.2626
     23 H          16.8951   69.9106   -9.4718 H       1  UNL1        0.1734
     24 O          22.4762   70.8424   -1.1919 O.3     1  UNL1       -0.2703
     25 P          21.7368   71.4594    0.1062 P.3     1  UNL1        0.2208
     26 O          21.4874   70.1640    1.0420 O.3     1  UNL1       -0.4371
     27 O          20.4962   72.2458   -0.2073 O.2     1  UNL1       -0.5170
     28 O          22.8837   72.2998    0.8693 O.3     1  UNL1       -0.2858
     29 O          24.2877   71.8678    2.7245 O.3     1  UNL1       -0.3226
     30 O          23.3035   75.8668    3.2895 O.3     1  UNL1       -0.3794
     31 O          21.2884   73.9569    2.3963 O.3     1  UNL1       -0.3775
     32 O          25.0471   74.0509    4.4263 O.3     1  UNL1       -0.3792
     33 C          23.6057   74.6642    2.5875 C.3     1  UNL1        0.1718
     34 C          22.5652   73.5846    2.9043 C.3     1  UNL1        0.1968
     35 C          24.9999   74.1858    3.0021 C.3     1  UNL1        0.1723
     36 C          22.9747   72.2393    2.2921 C.3     1  UNL1        0.2706
     37 C          25.2845   72.8251    2.3699 C.3     1  UNL1        0.1830
     38 H          23.9875   76.5193    3.0615 H       1  UNL1        0.2105
     39 H          20.6669   73.2412    2.6118 H       1  UNL1        0.2106
     40 H          24.5438   73.2582    4.6784 H       1  UNL1        0.2106
     41 O          26.6836   70.9482    2.5237 O.co2   1  UNL1       -0.5466
     42 O          27.4411   72.8867    3.4538 O.co2   1  UNL1       -0.5466
     43 C          26.5827   72.2591    2.8509 C.2     1  UNL1        0.0799
@<TRIPOS>UNITY_ATOM_ATTR
41 1
charge -1
@<TRIPOS>BOND
     1     1     4    1
     2     1    24    1
     3     1     2    1
     4     1     3    2
     5    25    28    1
     6    25    24    1
     7    25    26    1
     8    25    27    2
     9     6    11    1
    10     6    12    1
    11    29    36    1
    12    29    37    1
    13     7     9    1
    14     7    13    1
    15     8    10    1
    16     8    14    1
    17     4     5    1
    18    28    36    1
    19    30    33    1
    20    30    38    1
    21    31    34    1
    22    31    39    1
    23    32    35    1
    24    32    40    1
    25    41    43   ar
    26    15    19    2
    27    42    43   ar
    28    16    22    2
    29    17    12    1
    30    17    19   ar
    31    17    20   ar
    32    18    19   ar
    33    18    22   ar
    34    18    23    1
    35     9    10    1
    36     9    11    1
    37    10    12    1
    38    11     5    1
    39    33    34    1
    40    33    35    1
    41    34    36    1
    42    35    37    1
    43    37    43    1
    44    20    21   ar
    45    21    22   ar
@<TRIPOS>MOLECULE
UDP-glaA
 43 45 0 0 0
SMALL
GASTEIGER

@<TRIPOS>ATOM
      1 P          23.0417   71.4800   -2.7410 P.3     1  UNL1        0.2189
      2 O          23.1338   73.0708   -2.4612 O.3     1  UNL1       -0.4371
      3 O          24.3265   70.8385   -3.1767 O.2     1  UNL1       -0.5170
      4 O          21.8006   71.3362   -3.7679 O.3     1  UNL1       -0.3112
      5 C          21.6158   72.3396   -4.7519 C.3     1  UNL1        0.1811
      6 O          20.5542   70.5035   -5.8816 O.3     1  UNL1       -0.3308
      7 O          20.8840   72.1037   -8.3960 O.3     1  UNL1       -0.3794
      8 O          18.2644   72.5209   -7.7639 O.3     1  UNL1       -0.3779
      9 C          20.5948   72.5516   -7.0718 C.3     1  UNL1        0.1713
     10 C          19.1598   72.2308   -6.7106 C.3     1  UNL1        0.1895
     11 C          21.3720   71.6744   -6.0991 C.3     1  UNL1        0.1764
     12 C          19.2365   70.7453   -6.4018 C.3     1  UNL1        0.2383
     13 H          21.8218   72.2947   -8.5682 H       1  UNL1        0.2105
     14 H          18.3552   73.4665   -7.9731 H       1  UNL1        0.2106
     15 O          16.6078   69.9144   -7.0142 O.2     1  UNL1       -0.2464
     16 O          15.6017   69.2049   -2.5732 O.2     1  UNL1       -0.2670
     17 N          18.2669   70.3375   -5.4256 N.ar    1  UNL1       -0.2551
     18 N          16.1083   69.5621   -4.8023 N.ar    1  UNL1       -0.2743
     19 C          16.9737   69.9391   -5.8377 C.ar    1  UNL1        0.3323
     20 C          18.6009   70.3352   -4.0758 C.ar    1  UNL1        0.0869
     21 C          17.7647   69.9726   -3.1006 C.ar    1  UNL1        0.0795
     22 C          16.3948   69.5438   -3.4461 C.ar    1  UNL1        0.2626
     23 H          15.1731   69.2725   -5.0752 H       1  UNL1        0.1734
     24 O          22.4364   70.9031   -1.3568 O.3     1  UNL1       -0.2703
     25 P          21.3462   71.5224   -0.3367 P.3     1  UNL1        0.2208
     26 O          21.1604   70.3514    0.7635 O.3     1  UNL1       -0.4371
     27 O          20.0697   71.9644   -0.9933 O.2     1  UNL1       -0.5170
     28 O          22.1352   72.6942    0.4432 O.3     1  UNL1       -0.2858
     29 O          23.3099   71.8185    2.3013 O.3     1  UNL1       -0.3226
     30 O          23.9636   75.9038    2.7042 O.3     1  UNL1       -0.3794
     31 O          21.3445   74.8932    1.9133 O.3     1  UNL1       -0.3775
     32 O          24.8977   73.5960    3.9006 O.3     1  UNL1       -0.3792
     33 C          23.7591   74.6538    2.0514 C.3     1  UNL1        0.1718
     34 C          22.3906   74.0737    2.4243 C.3     1  UNL1        0.1968
     35 C          24.8699   73.6877    2.4724 C.3     1  UNL1        0.1723
     36 C          22.2321   72.6539    1.8662 C.3     1  UNL1        0.2706
     37 C          24.5899   72.3014    1.8964 C.3     1  UNL1        0.1830
     38 H          24.8406   76.2318    2.4418 H       1  UNL1        0.2105
     39 H          20.5004   74.4825    2.1653 H       1  UNL1        0.2106
     40 H          24.1337   73.0698    4.1913 H       1  UNL1        0.2106
     41 O          25.0029   70.0742    2.5068 O.co2   1  UNL1       -0.5466
     42 O          26.7513   71.5303    2.6472 O.co2   1  UNL1       -0.5466
     43 C          25.5801   71.2942    2.3884 C.2     1  UNL1        0.0799
@<TRIPOS>UNITY_ATOM_ATTR
41 1
charge -1
@<TRIPOS>BOND
     1     1     4    1
     2     1    24    1
     3     1     2    1
     4     1     3    2
     5    25    28    1
     6    25    24    1
     7    25    26    1
     8    25    27    2
     9     6    11    1
    10     6    12    1
    11    29    36    1
    12    29    37    1
    13     7     9    1
    14     7    13    1
    15     8    10    1
    16     8    14    1
    17     4     5    1
    18    28    36    1
    19    30    33    1
    20    30    38    1
    21    31    34    1
    22    31    39    1
    23    32    35    1
    24    32    40    1
    25    41    43   ar
    26    15    19    2
    27    42    43   ar
    28    16    22    2
    29    17    12    1
    30    17    19   ar
    31    17    20   ar
    32    18    19   ar
    33    18    22   ar
    34    18    23    1
    35     9    10    1
    36     9    11    1
    37    10    12    1
    38    11     5    1
    39    33    34    1
    40    33    35    1
    41    34    36    1
    42    35    37    1
    43    37    43    1
    44    20    21   ar
    45    21    22   ar
@<TRIPOS>MOLECULE
UDP-glaA
 43 45 0 0 0
SMALL
GASTEIGER

@<TRIPOS>ATOM
      1 P          19.8514   72.6268   -1.2170 P.3     1  UNL1        0.2189
      2 O          18.4692   73.3015   -0.7154 O.3     1  UNL1       -0.4371
      3 O          20.8432   73.5831   -1.8119 O.2     1  UNL1       -0.5170
      4 O          19.3692   71.4228   -2.1831 O.3     1  UNL1       -0.3112
      5 C          19.0695   71.7189   -3.5365 C.3     1  UNL1        0.1811
      6 O          17.2736   72.1104   -5.0843 O.3     1  UNL1       -0.3308
      7 O          15.5330   70.6155   -3.1537 O.3     1  UNL1       -0.3794
      8 O          16.0480   68.7408   -5.0658 O.3     1  UNL1       -0.3779
      9 C          16.9003   70.3914   -3.4974 C.3     1  UNL1        0.1713
     10 C          17.0004   69.7662   -4.8728 C.3     1  UNL1        0.1895
     11 C          17.5582   71.7476   -3.7152 C.3     1  UNL1        0.1764
     12 C          16.7643   70.9610   -5.7808 C.3     1  UNL1        0.2383
     13 H          15.5204   71.0516   -2.2847 H       1  UNL1        0.2105
     14 H          16.1984   68.0686   -4.3791 H       1  UNL1        0.2106
     15 O          15.4717   70.6111   -8.2672 O.2     1  UNL1       -0.2464
     16 O          19.4787   70.4951  -10.5407 O.2     1  UNL1       -0.2670
     17 N          17.4449   70.8371   -7.0380 N.ar    1  UNL1       -0.2551
     18 N          17.4679   70.5531   -9.3976 N.ar    1  UNL1       -0.2743
     19 C          16.7023   70.6637   -8.2294 C.ar    1  UNL1        0.3323
     20 C          18.8337   70.8877   -7.0823 C.ar    1  UNL1        0.0869
     21 C          19.5491   70.7812   -8.2042 C.ar    1  UNL1        0.0795
     22 C          18.8503   70.5970   -9.4916 C.ar    1  UNL1        0.2626
     23 H          16.9551   70.4271  -10.2662 H       1  UNL1        0.1734
     24 O          20.3735   71.8481    0.1007 O.3     1  UNL1       -0.2703
     25 P          21.7926   71.1454    0.4244 P.3     1  UNL1        0.2208
     26 O          22.5477   71.1579   -1.0060 O.3     1  UNL1       -0.4371
     27 O          21.6778   69.7862    1.0529 O.2     1  UNL1       -0.5170
     28 O          22.5905   72.2274    1.3169 O.3     1  UNL1       -0.2858
     29 O          24.2630   72.2616    2.9906 O.3     1  UNL1       -0.3226
     30 O          21.3923   74.8163    4.5755 O.3     1  UNL1       -0.3794
     31 O          20.6020   72.3534    3.2280 O.3     1  UNL1       -0.3775
     32 O          23.9805   74.0771    5.1957 O.3     1  UNL1       -0.3792
     33 C          22.1826   74.1648    3.5849 C.3     1  UNL1        0.1718
     34 C          21.9387   72.6522    3.6164 C.3     1  UNL1        0.1968
     35 C          23.6599   74.4629    3.8551 C.3     1  UNL1        0.1723
     36 C          22.9077   71.9260    2.6751 C.3     1  UNL1        0.2706
     37 C          24.5302   73.6595    2.8911 C.3     1  UNL1        0.1830
     38 H          21.5802   75.7688    4.5209 H       1  UNL1        0.2105
     39 H          20.4979   71.3873    3.2538 H       1  UNL1        0.2106
     40 H          24.0214   73.1067    5.2364 H       1  UNL1        0.2106
     41 O          26.6753   72.7106    2.8463 O.co2   1  UNL1       -0.5466
     42 O          26.4879   74.8130    3.7077 O.co2   1  UNL1       -0.5466
     43 C          25.9841   73.8199    3.2032 C.2     1  UNL1        0.0799
@<TRIPOS>UNITY_ATOM_ATTR
41 1
charge -1
@<TRIPOS>BOND
     1     1     4    1
     2     1    24    1
     3     1     2    1
     4     1     3    2
     5    25    28    1
     6    25    24    1
     7    25    26    1
     8    25    27    2
     9     6    11    1
    10     6    12    1
    11    29    36    1
    12    29    37    1
    13     7     9    1
    14     7    13    1
    15     8    10    1
    16     8    14    1
    17     4     5    1
    18    28    36    1
    19    30    33    1
    20    30    38    1
    21    31    34    1
    22    31    39    1
    23    32    35    1
    24    32    40    1
    25    41    43   ar
    26    15    19    2
    27    42    43   ar
    28    16    22    2
    29    17    12    1
    30    17    19   ar
    31    17    20   ar
    32    18    19   ar
    33    18    22   ar
    34    18    23    1
    35     9    10    1
    36     9    11    1
    37    10    12    1
    38    11     5    1
    39    33    34    1
    40    33    35    1
    41    34    36    1
    42    35    37    1
    43    37    43    1
    44    20    21   ar
    45    21    22   ar
@<TRIPOS>MOLECULE
UDP-glaA
 43 45 0 0 0
SMALL
GASTEIGER

@<TRIPOS>ATOM
      1 P          23.0007   71.3008   -2.5085 P.3     1  UNL1        0.2189
      2 O          22.7346   72.8932   -2.6129 O.3     1  UNL1       -0.4371
      3 O          24.3099   70.8391   -3.0784 O.2     1  UNL1       -0.5170
      4 O          21.6772   70.6409   -3.1630 O.3     1  UNL1       -0.3112
      5 C          20.9970   71.3547   -4.1813 C.3     1  UNL1        0.1811
      6 O          21.1055   70.6021   -6.4608 O.3     1  UNL1       -0.3308
      7 O          23.2657   72.6475   -6.8370 O.3     1  UNL1       -0.3794
      8 O          21.0855   73.8782   -7.9177 O.3     1  UNL1       -0.3779
      9 C          22.0881   72.7149   -6.0330 C.3     1  UNL1        0.1713
     10 C          20.8673   72.9173   -6.9055 C.3     1  UNL1        0.1895
     11 C          21.8373   71.3303   -5.4502 C.3     1  UNL1        0.1764
     12 C          20.6431   71.5221   -7.4634 C.3     1  UNL1        0.2383
     13 H          24.0147   72.4785   -6.2403 H       1  UNL1        0.2105
     14 H          21.3291   74.7128   -7.4814 H       1  UNL1        0.2106
     15 O          19.6133   70.9059  -10.0198 O.2     1  UNL1       -0.2464
     16 O          15.3161   70.5266   -8.3985 O.2     1  UNL1       -0.2670
     17 N          19.2597   71.2573   -7.7379 N.ar    1  UNL1       -0.2551
     18 N          17.4741   70.7179   -9.2108 N.ar    1  UNL1       -0.2743
     19 C          18.8457   70.9586   -9.0571 C.ar    1  UNL1        0.3323
     20 C          18.3286   71.2952   -6.7059 C.ar    1  UNL1        0.0869
     21 C          17.0242   71.0629   -6.8686 C.ar    1  UNL1        0.0795
     22 C          16.5097   70.7446   -8.2153 C.ar    1  UNL1        0.2626
     23 H          17.1537   70.5017  -10.1509 H       1  UNL1        0.1734
     24 O          22.8114   71.0047   -0.9300 O.3     1  UNL1       -0.2703
     25 P          21.5124   71.1289    0.0238 P.3     1  UNL1        0.2208
     26 O          21.7566   69.9792    1.1350 O.3     1  UNL1       -0.4371
     27 O          20.2023   71.0207   -0.7026 O.2     1  UNL1       -0.5170
     28 O          21.7207   72.5170    0.8198 O.3     1  UNL1       -0.2858
     29 O          23.1540   71.7607    2.5440 O.3     1  UNL1       -0.3226
     30 O          23.4813   75.8904    2.8880 O.3     1  UNL1       -0.3794
     31 O          20.8944   74.6471    2.3698 O.3     1  UNL1       -0.3775
     32 O          24.7349   73.6821    3.9751 O.3     1  UNL1       -0.3792
     33 C          23.3220   74.6230    2.2566 C.3     1  UNL1        0.1718
     34 C          22.0561   73.9267    2.7675 C.3     1  UNL1        0.1968
     35 C          24.5516   73.7617    2.5577 C.3     1  UNL1        0.1723
     36 C          21.9673   72.4948    2.2251 C.3     1  UNL1        0.2706
     37 C          24.3375   72.3523    2.0100 C.3     1  UNL1        0.1830
     38 H          24.2939   76.2929    2.5371 H       1  UNL1        0.2105
     39 H          20.1205   74.1650    2.7067 H       1  UNL1        0.2106
     40 H          24.0546   73.0923    4.3419 H       1  UNL1        0.2106
     41 O          25.0329   70.1546    2.4460 O.co2   1  UNL1       -0.5466
     42 O          26.6044   71.7961    2.6278 O.co2   1  UNL1       -0.5466
     43 C          25.4585   71.4398    2.3943 C.2     1  UNL1        0.0799
@<TRIPOS>UNITY_ATOM_ATTR
41 1
charge -1
@<TRIPOS>BOND
     1     1     4    1
     2     1    24    1
     3     1     2    1
     4     1     3    2
     5    25    28    1
     6    25    24    1
     7    25    26    1
     8    25    27    2
     9     6    11    1
    10     6    12    1
    11    29    36    1
    12    29    37    1
    13     7     9    1
    14     7    13    1
    15     8    10    1
    16     8    14    1
    17     4     5    1
    18    28    36    1
    19    30    33    1
    20    30    38    1
    21    31    34    1
    22    31    39    1
    23    32    35    1
    24    32    40    1
    25    41    43   ar
    26    15    19    2
    27    42    43   ar
    28    16    22    2
    29    17    12    1
    30    17    19   ar
    31    17    20   ar
    32    18    19   ar
    33    18    22   ar
    34    18    23    1
    35     9    10    1
    36     9    11    1
    37    10    12    1
    38    11     5    1
    39    33    34    1
    40    33    35    1
    41    34    36    1
    42    35    37    1
    43    37    43    1
    44    20    21   ar
    45    21    22   ar
@<TRIPOS>MOLECULE
UDP-glaA
 43 45 0 0 0
SMALL
GASTEIGER

@<TRIPOS>ATOM
      1 P          22.0770   73.1490   -4.8017 P.3     1  UNL1        0.2189
      2 O          22.6059   74.6681   -4.9751 O.3     1  UNL1       -0.4371
      3 O          22.6352   72.1677   -5.7904 O.2     1  UNL1       -0.5170
      4 O          20.4664   73.2961   -4.7901 O.3     1  UNL1       -0.3112
      5 C          19.7103   72.4015   -3.9918 C.3     1  UNL1        0.1811
      6 O          17.9761   72.9253   -5.5706 O.3     1  UNL1       -0.3308
      7 O          16.0400   72.1102   -3.4308 O.3     1  UNL1       -0.3794
      8 O          16.0992   69.9153   -5.0478 O.3     1  UNL1       -0.3779
      9 C          17.3212   71.5647   -3.7451 C.3     1  UNL1        0.1713
     10 C          17.2446   70.7414   -5.0136 C.3     1  UNL1        0.1895
     11 C          18.2303   72.7124   -4.1644 C.3     1  UNL1        0.1764
     12 C          17.2216   71.8164   -6.0868 C.3     1  UNL1        0.2383
     13 H          16.1462   72.6597   -2.6356 H       1  UNL1        0.2105
     14 H          16.1355   69.3322   -4.2702 H       1  UNL1        0.2106
     15 O          15.8092   70.5673   -8.1892 O.2     1  UNL1       -0.2464
     16 O          19.6163   70.1707  -10.7557 O.2     1  UNL1       -0.2670
     17 N          17.8183   71.3771   -7.3157 N.ar    1  UNL1       -0.2551
     18 N          17.7060   70.3702   -9.4656 N.ar    1  UNL1       -0.2743
     19 C          17.0206   70.7599   -8.3074 C.ar    1  UNL1        0.3323
     20 C          19.1803   71.5590   -7.5288 C.ar    1  UNL1        0.0869
     21 C          19.8189   71.1822   -8.6387 C.ar    1  UNL1        0.0795
     22 C          19.0589   70.5294   -9.7230 C.ar    1  UNL1        0.2626
     23 H          17.1527   69.9238  -10.1920 H       1  UNL1        0.1734
     24 O          22.4226   72.8191   -3.2568 O.3     1  UNL1       -0.2703
     25 P          22.8035   71.4268   -2.5294 P.3     1  UNL1        0.2208
     26 O          24.2875   71.1096   -3.0891 O.3     1  UNL1       -0.4371
     27 O          21.8084   70.3239   -2.7510 O.2     1  UNL1       -0.5170
     28 O          23.0268   71.8221   -0.9810 O.3     1  UNL1       -0.2858
     29 O          24.3482   70.9172    0.7610 O.3     1  UNL1       -0.3226
     30 O          20.8713   71.9883    2.7718 O.3     1  UNL1       -0.3794
     31 O          20.7363   70.7555    0.1320 O.3     1  UNL1       -0.3775
     32 O          23.3925   71.0953    3.4617 O.3     1  UNL1       -0.3792
     33 C          21.9186   72.0590    1.8082 C.3     1  UNL1        0.1718
     34 C          21.9177   70.8068    0.9249 C.3     1  UNL1        0.1968
     35 C          23.2577   72.1826    2.5405 C.3     1  UNL1        0.1723
     36 C          23.1417   70.7930    0.0008 C.3     1  UNL1        0.2706
     37 C          24.4022   72.1167    1.5316 C.3     1  UNL1        0.1830
     38 H          20.9114   72.7980    3.3087 H       1  UNL1        0.2105
     39 H          20.7849   69.9538   -0.4154 H       1  UNL1        0.2106
     40 H          23.5799   70.2852    2.9580 H       1  UNL1        0.2106
     41 O          26.1106   73.3601    2.5510 O.co2   1  UNL1       -0.5466
     42 O          26.3940   71.1007    2.4430 O.co2   1  UNL1       -0.5466
     43 C          25.7331   72.1033    2.2140 C.2     1  UNL1        0.0799
@<TRIPOS>UNITY_ATOM_ATTR
41 1
charge -1
@<TRIPOS>BOND
     1     1     4    1
     2     1    24    1
     3     1     2    1
     4     1     3    2
     5    25    28    1
     6    25    24    1
     7    25    26    1
     8    25    27    2
     9     6    11    1
    10     6    12    1
    11    29    36    1
    12    29    37    1
    13     7     9    1
    14     7    13    1
    15     8    10    1
    16     8    14    1
    17     4     5    1
    18    28    36    1
    19    30    33    1
    20    30    38    1
    21    31    34    1
    22    31    39    1
    23    32    35    1
    24    32    40    1
    25    41    43   ar
    26    15    19    2
    27    42    43   ar
    28    16    22    2
    29    17    12    1
    30    17    19   ar
    31    17    20   ar
    32    18    19   ar
    33    18    22   ar
    34    18    23    1
    35     9    10    1
    36     9    11    1
    37    10    12    1
    38    11     5    1
    39    33    34    1
    40    33    35    1
    41    34    36    1
    42    35    37    1
    43    37    43    1
    44    20    21   ar
    45    21    22   ar
@<TRIPOS>MOLECULE
UDP-glaA
 43 45 0 0 0
SMALL
GASTEIGER

@<TRIPOS>ATOM
      1 P          23.3738   72.0302   -3.4394 P.3     1  UNL1        0.2189
      2 O          24.1712   72.9331   -4.5194 O.3     1  UNL1       -0.4371
      3 O          24.1242   70.8302   -2.9405 O.2     1  UNL1       -0.5170
      4 O          21.9569   71.7250   -4.1568 O.3     1  UNL1       -0.3112
      5 C          21.2114   70.5969   -3.7316 C.3     1  UNL1        0.1811
      6 O          19.2207   71.6507   -4.5689 O.3     1  UNL1       -0.3308
      7 O          17.8031   70.3953   -2.2439 O.3     1  UNL1       -0.3794
      8 O          17.1421   68.7408   -4.3082 O.3     1  UNL1       -0.3779
      9 C          18.8729   69.8787   -3.0353 C.3     1  UNL1        0.1713
     10 C          18.3611   69.4495   -4.3941 C.3     1  UNL1        0.1895
     11 C          19.7943   71.0374   -3.3933 C.3     1  UNL1        0.1764
     12 C          18.2133   70.7808   -5.1109 C.3     1  UNL1        0.2383
     13 H          18.1843   70.6927   -1.4002 H       1  UNL1        0.2105
     14 H          17.2951   67.9624   -3.7452 H       1  UNL1        0.2106
     15 O          16.2156   69.9743   -6.9369 O.2     1  UNL1       -0.2464
     16 O          19.0788   70.3713  -10.5262 O.2     1  UNL1       -0.2670
     17 N          18.4089   70.6653   -6.5278 N.ar    1  UNL1       -0.2551
     18 N          17.6428   70.1721   -8.7230 N.ar    1  UNL1       -0.2743
     19 C          17.3406   70.2510   -7.3571 C.ar    1  UNL1        0.3323
     20 C          19.6492   70.9609   -7.0827 C.ar    1  UNL1        0.0869
     21 C          19.9214   70.8812   -8.3870 C.ar    1  UNL1        0.0795
     22 C          18.8607   70.4553   -9.3215 C.ar    1  UNL1        0.2626
     23 H          16.8899   69.8757   -9.3381 H       1  UNL1        0.1734
     24 O          22.9777   73.1010   -2.2940 O.3     1  UNL1       -0.2703
     25 P          22.8554   72.9415   -0.6902 P.3     1  UNL1        0.2208
     26 O          21.8741   74.1567   -0.2702 O.3     1  UNL1       -0.4371
     27 O          24.1733   72.9316    0.0301 O.2     1  UNL1       -0.5170
     28 O          21.9698   71.6093   -0.4781 O.3     1  UNL1       -0.2858
     29 O          22.8293   70.6534    1.5086 O.3     1  UNL1       -0.3226
     30 O          21.5332   74.3776    2.8238 O.3     1  UNL1       -0.3794
     31 O          19.9371   72.8371    0.9303 O.3     1  UNL1       -0.3775
     32 O          22.9840   72.2740    3.8726 O.3     1  UNL1       -0.3792
     33 C          22.0751   73.4010    1.9390 C.3     1  UNL1        0.1718
     34 C          21.0418   72.3058    1.6543 C.3     1  UNL1        0.1968
     35 C          23.3234   72.7895    2.5811 C.3     1  UNL1        0.1723
     36 C          21.6691   71.1646    0.8440 C.3     1  UNL1        0.2706
     37 C          23.8371   71.6424    1.7136 C.3     1  UNL1        0.1830
     38 H          22.2206   75.0479    2.9775 H       1  UNL1        0.2105
     39 H          19.3162   72.1076    0.7656 H       1  UNL1        0.2106
     40 H          22.4702   71.4572    3.7539 H       1  UNL1        0.2106
     41 O          26.0655   71.7376    2.4407 O.co2   1  UNL1       -0.5466
     42 O          24.9446   69.7822    2.7827 O.co2   1  UNL1       -0.5466
     43 C          24.9792   70.9313    2.3669 C.2     1  UNL1        0.0799
@<TRIPOS>UNITY_ATOM_ATTR
41 1
charge -1
@<TRIPOS>BOND
     1     1     4    1
     2     1    24    1
     3     1     2    1
     4     1     3    2
     5    25    28    1
     6    25    24    1
     7    25    26    1
     8    25    27    2
     9     6    11    1
    10     6    12    1
    11    29    36    1
    12    29    37    1
    13     7     9    1
    14     7    13    1
    15     8    10    1
    16     8    14    1
    17     4     5    1
    18    28    36    1
    19    30    33    1
    20    30    38    1
    21    31    34    1
    22    31    39    1
    23    32    35    1
    24    32    40    1
    25    41    43   ar
    26    15    19    2
    27    42    43   ar
    28    16    22    2
    29    17    12    1
    30    17    19   ar
    31    17    20   ar
    32    18    19   ar
    33    18    22   ar
    34    18    23    1
    35     9    10    1
    36     9    11    1
    37    10    12    1
    38    11     5    1
    39    33    34    1
    40    33    35    1
    41    34    36    1
    42    35    37    1
    43    37    43    1
    44    20    21   ar
    45    21    22   ar
@<TRIPOS>MOLECULE
UDP-glaA
 43 45 0 0 0
SMALL
GASTEIGER

@<TRIPOS>ATOM
      1 P          19.7375   71.2103   -1.4963 P.3     1  UNL1        0.2189
      2 O          18.7154   69.9814   -1.7460 O.3     1  UNL1       -0.4371
      3 O          19.0826   72.5355   -1.2370 O.2     1  UNL1       -0.5170
      4 O          20.7320   71.1551   -2.7704 O.3     1  UNL1       -0.3112
      5 C          20.9477   72.3428   -3.5134 C.3     1  UNL1        0.1811
      6 O          21.2442   71.0056   -5.4879 O.3     1  UNL1       -0.3308
      7 O          23.3016   73.0228   -6.3182 O.3     1  UNL1       -0.3794
      8 O          21.1269   73.7479   -7.7948 O.3     1  UNL1       -0.3779
      9 C          22.0734   73.2210   -5.6183 C.3     1  UNL1        0.1713
     10 C          20.9009   73.0871   -6.5669 C.3     1  UNL1        0.1895
     11 C          21.8669   72.0340   -4.6867 C.3     1  UNL1        0.1764
     12 C          20.7938   71.5800   -6.7258 C.3     1  UNL1        0.2383
     13 H          24.0198   73.0787   -5.6650 H       1  UNL1        0.2105
     14 H          21.2934   74.6855   -7.5963 H       1  UNL1        0.2106
     15 O          19.7593   70.9978   -9.2882 O.2     1  UNL1       -0.2464
     16 O          15.6143   69.9385   -7.5747 O.2     1  UNL1       -0.2670
     17 N          19.4484   71.1496   -6.9783 N.ar    1  UNL1       -0.2551
     18 N          17.6958   70.4712   -8.4333 N.ar    1  UNL1       -0.2743
     19 C          19.0283   70.8840   -8.3026 C.ar    1  UNL1        0.3323
     20 C          18.5600   70.9947   -5.9199 C.ar    1  UNL1        0.0869
     21 C          17.2927   70.5998   -6.0609 C.ar    1  UNL1        0.0795
     22 C          16.7746   70.3030   -7.4111 C.ar    1  UNL1        0.2626
     23 H          17.3717   70.2752   -9.3766 H       1  UNL1        0.1734
     24 O          20.6657   70.6697   -0.2874 O.3     1  UNL1       -0.2703
     25 P          21.5120   71.4650    0.8368 P.3     1  UNL1        0.2208
     26 O          22.6171   70.3809    1.3053 O.3     1  UNL1       -0.4371
     27 O          20.6787   72.0237    1.9545 O.2     1  UNL1       -0.5170
     28 O          22.3489   72.5711    0.0121 O.3     1  UNL1       -0.2858
     29 O          21.1292   74.3192    1.0398 O.3     1  UNL1       -0.3226
     30 O          24.1765   73.6512    3.7870 O.3     1  UNL1       -0.3794
     31 O          24.7314   73.6272    0.9239 O.3     1  UNL1       -0.3775
     32 O          21.8508   75.1385    3.6944 O.3     1  UNL1       -0.3792
     33 C          23.2017   73.3508    2.7921 C.3     1  UNL1        0.1718
     34 C          23.5153   74.1007    1.4930 C.3     1  UNL1        0.1968
     35 C          21.8209   73.7594    3.3125 C.3     1  UNL1        0.1723
     36 C          22.3826   73.9205    0.4748 C.3     1  UNL1        0.2706
     37 C          20.7819   73.5777    2.2082 C.3     1  UNL1        0.1830
     38 H          23.9374   73.1582    4.5903 H       1  UNL1        0.2105
     39 H          24.8829   74.1228    0.1015 H       1  UNL1        0.2106
     40 H          21.8657   75.6819    2.8883 H       1  UNL1        0.2106
     41 O          19.2841   73.9696    3.9708 O.co2   1  UNL1       -0.5466
     42 O          18.5963   74.5486    1.8759 O.co2   1  UNL1       -0.5466
     43 C          19.4402   74.0864    2.6301 C.2     1  UNL1        0.0799
@<TRIPOS>UNITY_ATOM_ATTR
41 1
charge -1
@<TRIPOS>BOND
     1     1     4    1
     2     1    24    1
     3     1     2    1
     4     1     3    2
     5    25    28    1
     6    25    24    1
     7    25    26    1
     8    25    27    2
     9     6    11    1
    10     6    12    1
    11    29    36    1
    12    29    37    1
    13     7     9    1
    14     7    13    1
    15     8    10    1
    16     8    14    1
    17     4     5    1
    18    28    36    1
    19    30    33    1
    20    30    38    1
    21    31    34    1
    22    31    39    1
    23    32    35    1
    24    32    40    1
    25    41    43   ar
    26    15    19    2
    27    42    43   ar
    28    16    22    2
    29    17    12    1
    30    17    19   ar
    31    17    20   ar
    32    18    19   ar
    33    18    22   ar
    34    18    23    1
    35     9    10    1
    36     9    11    1
    37    10    12    1
    38    11     5    1
    39    33    34    1
    40    33    35    1
    41    34    36    1
    42    35    37    1
    43    37    43    1
    44    20    21   ar
    45    21    22   ar
@<TRIPOS>MOLECULE
UDP-glaA
 43 45 0 0 0
SMALL
GASTEIGER

@<TRIPOS>ATOM
      1 P          20.9890   72.2331   -4.0214 P.3     1  UNL1        0.2189
      2 O          20.0873   73.5723   -4.1250 O.3     1  UNL1       -0.4371
      3 O          21.4223   71.6583   -5.3382 O.2     1  UNL1       -0.5170
      4 O          20.1191   71.2496   -3.0773 O.3     1  UNL1       -0.3112
      5 C          19.3517   70.2269   -3.6893 C.3     1  UNL1        0.1811
      6 O          17.7481   71.3633   -5.0719 O.3     1  UNL1       -0.3308
      7 O          15.6441   70.0592   -3.3797 O.3     1  UNL1       -0.3794
      8 O          15.6584   68.5013   -5.6177 O.3     1  UNL1       -0.3779
      9 C          16.9044   69.5448   -3.8095 C.3     1  UNL1        0.1713
     10 C          16.8496   69.1805   -5.2781 C.3     1  UNL1        0.1895
     11 C          17.9067   70.6915   -3.8028 C.3     1  UNL1        0.1764
     12 C          16.9565   70.5412   -5.9452 C.3     1  UNL1        0.2383
     13 H          15.7384   70.3146   -2.4462 H       1  UNL1        0.2105
     14 H          15.6129   67.6986   -5.0702 H       1  UNL1        0.2106
     15 O          15.5805   70.5086   -8.4112 O.2     1  UNL1       -0.2464
     16 O          19.5094   70.2787  -10.8090 O.2     1  UNL1       -0.2670
     17 N          17.5945   70.4738   -7.2289 N.ar    1  UNL1       -0.2551
     18 N          17.5378   70.3936   -9.6036 N.ar    1  UNL1       -0.2743
     19 C          16.8119   70.4620   -8.4071 C.ar    1  UNL1        0.3323
     20 C          18.9815   70.4201   -7.3116 C.ar    1  UNL1        0.0869
     21 C          19.6588   70.3557   -8.4600 C.ar    1  UNL1        0.0795
     22 C          18.9166   70.3381   -9.7361 C.ar    1  UNL1        0.2626
     23 H          16.9958   70.3833  -10.4634 H       1  UNL1        0.1734
     24 O          22.2020   72.6870   -3.0529 O.3     1  UNL1       -0.2703
     25 P          22.9495   71.9047   -1.8521 P.3     1  UNL1        0.2208
     26 O          24.1833   71.1717   -2.5983 O.3     1  UNL1       -0.4371
     27 O          22.0598   70.9803   -1.0712 O.2     1  UNL1       -0.5170
     28 O          23.6380   73.0688   -0.9719 O.3     1  UNL1       -0.2858
     29 O          22.6326   73.8804    1.0104 O.3     1  UNL1       -0.3226
     30 O          21.6004   69.8546    1.0954 O.3     1  UNL1       -0.3794
     31 O          24.2705   70.6823    0.2640 O.3     1  UNL1       -0.3775
     32 O          20.9464   72.1231    2.5295 O.3     1  UNL1       -0.3792
     33 C          21.8987   71.1334    0.5423 C.3     1  UNL1        0.1718
     34 C          23.3316   71.5470    0.8945 C.3     1  UNL1        0.1968
     35 C          20.9059   72.1576    1.0991 C.3     1  UNL1        0.1723
     36 C          23.6047   72.9901    0.4525 C.3     1  UNL1        0.2706
     37 C          21.2958   73.5577    0.6301 C.3     1  UNL1        0.1830
     38 H          20.6854   69.6351    0.8501 H       1  UNL1        0.2105
     39 H          25.1605   70.9880    0.5077 H       1  UNL1        0.2106
     40 H          21.7696   72.5472    2.8255 H       1  UNL1        0.2106
     41 O          19.3395   74.8446    0.4877 O.co2   1  UNL1       -0.5466
     42 O          20.6651   75.1694    2.3137 O.co2   1  UNL1       -0.5466
     43 C          20.4300   74.6050    1.2551 C.2     1  UNL1        0.0799
@<TRIPOS>UNITY_ATOM_ATTR
41 1
charge -1
@<TRIPOS>BOND
     1     1     4    1
     2     1    24    1
     3     1     2    1
     4     1     3    2
     5    25    28    1
     6    25    24    1
     7    25    26    1
     8    25    27    2
     9     6    11    1
    10     6    12    1
    11    29    36    1
    12    29    37    1
    13     7     9    1
    14     7    13    1
    15     8    10    1
    16     8    14    1
    17     4     5    1
    18    28    36    1
    19    30    33    1
    20    30    38    1
    21    31    34    1
    22    31    39    1
    23    32    35    1
    24    32    40    1
    25    41    43   ar
    26    15    19    2
    27    42    43   ar
    28    16    22    2
    29    17    12    1
    30    17    19   ar
    31    17    20   ar
    32    18    19   ar
    33    18    22   ar
    34    18    23    1
    35     9    10    1
    36     9    11    1
    37    10    12    1
    38    11     5    1
    39    33    34    1
    40    33    35    1
    41    34    36    1
    42    35    37    1
    43    37    43    1
    44    20    21   ar
    45    21    22   ar
@<TRIPOS>MOLECULE
UDP-glaA
 43 45 0 0 0
SMALL
GASTEIGER

@<TRIPOS>ATOM
      1 P          23.7034   72.4053   -3.6248 P.3     1  UNL1        0.2189
      2 O          24.8075   73.5778   -3.7779 O.3     1  UNL1       -0.4371
      3 O          24.2412   71.0875   -3.1493 O.2     1  UNL1       -0.5170
      4 O          22.9567   72.3834   -5.0593 O.3     1  UNL1       -0.3112
      5 C          21.5665   72.1091   -5.0953 C.3     1  UNL1        0.1811
      6 O          20.3865   70.2918   -6.1343 O.3     1  UNL1       -0.3308
      7 O          20.6304   71.8411   -8.6900 O.3     1  UNL1       -0.3794
      8 O          18.0638   72.3544   -7.9250 O.3     1  UNL1       -0.3779
      9 C          20.4282   72.3187   -7.3601 C.3     1  UNL1        0.1713
     10 C          19.0054   72.0512   -6.9166 C.3     1  UNL1        0.1895
     11 C          21.2286   71.4315   -6.4157 C.3     1  UNL1        0.1764
     12 C          19.0509   70.5689   -6.5868 C.3     1  UNL1        0.2383
     13 H          21.5630   71.9983   -8.9158 H       1  UNL1        0.2105
     14 H          18.1735   73.2932   -8.1551 H       1  UNL1        0.2106
     15 O          16.3654   69.8229   -7.0417 O.2     1  UNL1       -0.2464
     16 O          15.5823   69.2087   -2.5419 O.2     1  UNL1       -0.2670
     17 N          18.1233   70.2086   -5.5529 N.ar    1  UNL1       -0.2551
     18 N          15.9771   69.5180   -4.8006 N.ar    1  UNL1       -0.2743
     19 C          16.7964   69.8504   -5.8875 C.ar    1  UNL1        0.3323
     20 C          18.5310   70.2126   -4.2235 C.ar    1  UNL1        0.0869
     21 C          17.7380   69.8927   -3.1986 C.ar    1  UNL1        0.0795
     22 C          16.3372   69.5078   -3.4620 C.ar    1  UNL1        0.2626
     23 H          15.0187   69.2578   -5.0174 H       1  UNL1        0.1734
     24 O          22.5986   73.0729   -2.6506 O.3     1  UNL1       -0.2703
     25 P          22.3216   74.6175   -2.2633 P.3     1  UNL1        0.2208
     26 O          21.7231   75.2413   -3.6304 O.3     1  UNL1       -0.4371
     27 O          23.5216   75.3423   -1.7245 O.2     1  UNL1       -0.5170
     28 O          21.0644   74.5666   -1.2530 O.3     1  UNL1       -0.2858
     29 O          21.2958   73.0897    0.5814 O.3     1  UNL1       -0.3226
     30 O          25.0265   74.9191    0.4600 O.3     1  UNL1       -0.3794
     31 O          22.5986   76.4748    0.0229 O.3     1  UNL1       -0.3775
     32 O          23.8690   72.8136    1.8227 O.3     1  UNL1       -0.3792
     33 C          23.8065   74.3665   -0.0265 C.3     1  UNL1        0.1718
     34 C          22.6086   75.1441    0.5289 C.3     1  UNL1        0.1968
     35 C          23.7223   72.8987    0.4014 C.3     1  UNL1        0.1723
     36 C          21.2914   74.4550    0.1514 C.3     1  UNL1        0.2706
     37 C          22.3601   72.3283    0.0129 C.3     1  UNL1        0.1830
     38 H          25.7555   74.3955    0.0858 H       1  UNL1        0.2105
     39 H          21.8200   76.9236    0.3933 H       1  UNL1        0.2106
     40 H          23.0486   73.1301    2.2374 H       1  UNL1        0.2106
     41 O          23.3853   70.3652    0.7869 O.co2   1  UNL1       -0.5466
     42 O          21.1075   70.3797    0.6941 O.co2   1  UNL1       -0.5466
     43 C          22.1838   70.9346    0.5265 C.2     1  UNL1        0.0799
@<TRIPOS>UNITY_ATOM_ATTR
41 1
charge -1
@<TRIPOS>BOND
     1     1     4    1
     2     1    24    1
     3     1     2    1
     4     1     3    2
     5    25    28    1
     6    25    24    1
     7    25    26    1
     8    25    27    2
     9     6    11    1
    10     6    12    1
    11    29    36    1
    12    29    37    1
    13     7     9    1
    14     7    13    1
    15     8    10    1
    16     8    14    1
    17     4     5    1
    18    28    36    1
    19    30    33    1
    20    30    38    1
    21    31    34    1
    22    31    39    1
    23    32    35    1
    24    32    40    1
    25    41    43   ar
    26    15    19    2
    27    42    43   ar
    28    16    22    2
    29    17    12    1
    30    17    19   ar
    31    17    20   ar
    32    18    19   ar
    33    18    22   ar
    34    18    23    1
    35     9    10    1
    36     9    11    1
    37    10    12    1
    38    11     5    1
    39    33    34    1
    40    33    35    1
    41    34    36    1
    42    35    37    1
    43    37    43    1
    44    20    21   ar
    45    21    22   ar
@<TRIPOS>MOLECULE
UDP-glaA
 43 45 0 0 0
SMALL
GASTEIGER

@<TRIPOS>ATOM
      1 P          23.4641   72.0072   -3.3216 P.3     1  UNL1        0.2189
      2 O          24.1731   72.8788   -4.4857 O.3     1  UNL1       -0.4371
      3 O          24.1891   70.7491   -2.9424 O.2     1  UNL1       -0.5170
      4 O          21.9477   71.8128   -3.8491 O.3     1  UNL1       -0.3112
      5 C          21.4867   72.6384   -4.9051 C.3     1  UNL1        0.1811
      6 O          20.6529   70.6053   -5.8775 O.3     1  UNL1       -0.3308
      7 O          21.0403   71.9378   -8.5356 O.3     1  UNL1       -0.3794
      8 O          18.3577   72.2009   -8.1230 O.3     1  UNL1       -0.3779
      9 C          20.6228   72.5043   -7.2936 C.3     1  UNL1        0.1713
     10 C          19.1942   72.1061   -6.9886 C.3     1  UNL1        0.1895
     11 C          21.3925   71.8094   -6.1781 C.3     1  UNL1        0.1764
     12 C          19.3616   70.6759   -6.5043 C.3     1  UNL1        0.2383
     13 H          21.9707   72.1867   -8.6694 H       1  UNL1        0.2105
     14 H          18.3908   73.1216   -8.4350 H       1  UNL1        0.2106
     15 O          16.7655   69.7955   -7.1830 O.2     1  UNL1       -0.2464
     16 O          15.5928   69.2587   -2.7586 O.2     1  UNL1       -0.2670
     17 N          18.3580   70.2991   -5.5503 N.ar    1  UNL1       -0.2551
     18 N          16.1831   69.5293   -4.9793 N.ar    1  UNL1       -0.2743
     19 C          17.0851   69.8718   -5.9952 C.ar    1  UNL1        0.3323
     20 C          18.6392   70.3553   -4.1897 C.ar    1  UNL1        0.0869
     21 C          17.7685   70.0248   -3.2333 C.ar    1  UNL1        0.0795
     22 C          16.4167   69.5692   -3.6134 C.ar    1  UNL1        0.2626
     23 H          15.2615   69.2197   -5.2759 H       1  UNL1        0.1734
     24 O          23.2963   73.0762   -2.1199 O.3     1  UNL1       -0.2703
     25 P          23.0074   72.8631   -0.5439 P.3     1  UNL1        0.2208
     26 O          21.4614   72.3888   -0.5109 O.3     1  UNL1       -0.4371
     27 O          23.3052   74.0657    0.3051 O.2     1  UNL1       -0.5170
     28 O          23.8479   71.5434   -0.1489 O.3     1  UNL1       -0.2858
     29 O          24.6704   71.9713    2.0283 O.3     1  UNL1       -0.3226
     30 O          20.5617   72.2939    2.5704 O.3     1  UNL1       -0.3794
     31 O          21.6728   70.1912    0.8822 O.3     1  UNL1       -0.3775
     32 O          22.8273   72.7915    4.0701 O.3     1  UNL1       -0.3792
     33 C          21.8215   72.3879    1.9113 C.3     1  UNL1        0.1718
     34 C          22.4504   70.9986    1.7598 C.3     1  UNL1        0.1968
     35 C          22.7435   73.2936    2.7322 C.3     1  UNL1        0.1723
     36 C          23.8777   71.1056    1.2089 C.3     1  UNL1        0.2706
     37 C          24.1420   73.2935    2.1188 C.3     1  UNL1        0.1830
     38 H          20.2025   73.1943    2.6465 H       1  UNL1        0.2105
     39 H          22.1136   69.3278    0.8101 H       1  UNL1        0.2106
     40 H          23.3802   71.9919    4.0658 H       1  UNL1        0.2106
     41 O          25.8768   74.8712    2.1921 O.co2   1  UNL1       -0.5466
     42 O          25.1992   73.9803    4.1781 O.co2   1  UNL1       -0.5466
     43 C          25.1093   74.0623    2.9617 C.2     1  UNL1        0.0799
@<TRIPOS>UNITY_ATOM_ATTR
41 1
charge -1
@<TRIPOS>BOND
     1     1     4    1
     2     1    24    1
     3     1     2    1
     4     1     3    2
     5    25    28    1
     6    25    24    1
     7    25    26    1
     8    25    27    2
     9     6    11    1
    10     6    12    1
    11    29    36    1
    12    29    37    1
    13     7     9    1
    14     7    13    1
    15     8    10    1
    16     8    14    1
    17     4     5    1
    18    28    36    1
    19    30    33    1
    20    30    38    1
    21    31    34    1
    22    31    39    1
    23    32    35    1
    24    32    40    1
    25    41    43   ar
    26    15    19    2
    27    42    43   ar
    28    16    22    2
    29    17    12    1
    30    17    19   ar
    31    17    20   ar
    32    18    19   ar
    33    18    22   ar
    34    18    23    1
    35     9    10    1
    36     9    11    1
    37    10    12    1
    38    11     5    1
    39    33    34    1
    40    33    35    1
    41    34    36    1
    42    35    37    1
    43    37    43    1
    44    20    21   ar
    45    21    22   ar
@<TRIPOS>MOLECULE
UDP-glaA
 43 45 0 0 0
SMALL
GASTEIGER

@<TRIPOS>ATOM
      1 P          22.5573   71.4129   -2.8742 P.3     1  UNL1        0.2189
      2 O          22.5487   73.0245   -2.7332 O.3     1  UNL1       -0.4371
      3 O          23.9068   70.8067   -3.1259 O.2     1  UNL1       -0.5170
      4 O          21.4320   71.1139   -3.9967 O.3     1  UNL1       -0.3112
      5 C          20.5119   70.0598   -3.7696 C.3     1  UNL1        0.1811
      6 O          18.7745   71.3821   -4.7733 O.3     1  UNL1       -0.3308
      7 O          16.9403   70.1902   -2.7224 O.3     1  UNL1       -0.3794
      8 O          16.3686   68.7297   -4.9531 O.3     1  UNL1       -0.3779
      9 C          18.0383   69.5903   -3.4095 C.3     1  UNL1        0.1713
     10 C          17.6599   69.2924   -4.8450 C.3     1  UNL1        0.1895
     11 C          19.1212   70.6479   -3.5783 C.3     1  UNL1        0.1764
     12 C          17.7541   70.6656   -5.4879 C.3     1  UNL1        0.2383
     13 H          17.2411   70.3983   -1.8214 H       1  UNL1        0.2105
     14 H          16.3608   67.9119   -4.4266 H       1  UNL1        0.2106
     15 O          15.9464   70.0954   -7.5813 O.2     1  UNL1       -0.2464
     16 O          19.2534   70.4297  -10.7737 O.2     1  UNL1       -0.2670
     17 N          18.1153   70.5979   -6.8751 N.ar    1  UNL1       -0.2551
     18 N          17.5945   70.2617   -9.1696 N.ar    1  UNL1       -0.2743
     19 C          17.1315   70.3034   -7.8478 C.ar    1  UNL1        0.3323
     20 C          19.4325   70.8219   -7.2601 C.ar    1  UNL1        0.0869
     21 C          19.8581   70.7791   -8.5246 C.ar    1  UNL1        0.0795
     22 C          18.8941   70.4771   -9.6012 C.ar    1  UNL1        0.2626
     23 H          16.9046   70.0511   -9.8857 H       1  UNL1        0.1734
     24 O          21.8445   70.9257   -1.5068 O.3     1  UNL1       -0.2703
     25 P          22.2903   71.0905    0.0381 P.3     1  UNL1        0.2208
     26 O          23.8933   71.2843   -0.0568 O.3     1  UNL1       -0.4371
     27 O          21.8538   69.9627    0.9288 O.2     1  UNL1       -0.5170
     28 O          21.7287   72.5393    0.4734 O.3     1  UNL1       -0.2858
     29 O          21.0753   72.6561    2.7447 O.3     1  UNL1       -0.3226
     30 O          19.6984   76.2842    1.2547 O.3     1  UNL1       -0.3794
     31 O          19.4226   73.8391   -0.3109 O.3     1  UNL1       -0.3775
     32 O          19.9447   75.1002    3.7381 O.3     1  UNL1       -0.3792
     33 C          20.5474   75.1491    1.3995 C.3     1  UNL1        0.1718
     34 C          19.7825   73.8637    1.0663 C.3     1  UNL1        0.1968
     35 C          21.0602   75.0948    2.8412 C.3     1  UNL1        0.1723
     36 C          20.6333   72.6276    1.3835 C.3     1  UNL1        0.2706
     37 C          21.8563   73.8092    3.0547 C.3     1  UNL1        0.1830
     38 H          20.2222   77.0726    1.4774 H       1  UNL1        0.2105
     39 H          18.9506   73.0055   -0.4759 H       1  UNL1        0.2106
     40 H          19.5182   74.2271    3.7058 H       1  UNL1        0.2106
     41 O          22.5832   72.3609    4.7511 O.co2   1  UNL1       -0.5466
     42 O          22.3173   74.5565    5.3038 O.co2   1  UNL1       -0.5466
     43 C          22.2673   73.6511    4.4840 C.2     1  UNL1        0.0799
@<TRIPOS>UNITY_ATOM_ATTR
41 1
charge -1
@<TRIPOS>BOND
     1     1     4    1
     2     1    24    1
     3     1     2    1
     4     1     3    2
     5    25    28    1
     6    25    24    1
     7    25    26    1
     8    25    27    2
     9     6    11    1
    10     6    12    1
    11    29    36    1
    12    29    37    1
    13     7     9    1
    14     7    13    1
    15     8    10    1
    16     8    14    1
    17     4     5    1
    18    28    36    1
    19    30    33    1
    20    30    38    1
    21    31    34    1
    22    31    39    1
    23    32    35    1
    24    32    40    1
    25    41    43   ar
    26    15    19    2
    27    42    43   ar
    28    16    22    2
    29    17    12    1
    30    17    19   ar
    31    17    20   ar
    32    18    19   ar
    33    18    22   ar
    34    18    23    1
    35     9    10    1
    36     9    11    1
    37    10    12    1
    38    11     5    1
    39    33    34    1
    40    33    35    1
    41    34    36    1
    42    35    37    1
    43    37    43    1
    44    20    21   ar
    45    21    22   ar
@<TRIPOS>MOLECULE
UDP-glaA
 43 45 0 0 0
SMALL
GASTEIGER

@<TRIPOS>ATOM
      1 P          23.4991   72.2600   -3.4717 P.3     1  UNL1        0.2189
      2 O          24.1906   70.8416   -3.1150 O.3     1  UNL1       -0.4371
      3 O          24.4323   73.2984   -4.0224 O.2     1  UNL1       -0.5170
      4 O          22.7186   72.6654   -2.1146 O.3     1  UNL1       -0.3112
      5 C          23.4457   72.6958   -0.8982 C.3     1  UNL1        0.1811
      6 O          24.4640   71.0307    0.5035 O.3     1  UNL1       -0.3308
      7 O          21.6745   70.1665    1.1840 O.3     1  UNL1       -0.3794
      8 O          22.3853   71.6504    3.3585 O.3     1  UNL1       -0.3779
      9 C          22.1796   71.4795    0.9420 C.3     1  UNL1        0.1713
     10 C          23.0005   71.9523    2.1232 C.3     1  UNL1        0.1895
     11 C          23.2290   71.3839   -0.1576 C.3     1  UNL1        0.1764
     12 C          24.3055   71.2011    1.9217 C.3     1  UNL1        0.2383
     13 H          21.1898   69.8910    0.3873 H       1  UNL1        0.2105
     14 H          21.5120   72.0787    3.3630 H       1  UNL1        0.2106
     15 O          24.2779   73.9402    2.6088 O.2     1  UNL1       -0.2464
     16 O          28.7065   73.8535    3.8809 O.2     1  UNL1       -0.2670
     17 N          25.4366   71.9196    2.4352 N.ar    1  UNL1       -0.2551
     18 N          26.4833   73.8953    3.2413 N.ar    1  UNL1       -0.2743
     19 C          25.3178   73.2939    2.7483 C.ar    1  UNL1        0.3323
     20 C          26.6476   71.2629    2.6237 C.ar    1  UNL1        0.0869
     21 C          27.7497   71.8502    3.0952 C.ar    1  UNL1        0.0795
     22 C          27.7105   73.2838    3.4456 C.ar    1  UNL1        0.2626
     23 H          26.4215   74.8832    3.4726 H       1  UNL1        0.1734
     24 O          22.2982   71.8371   -4.4688 O.3     1  UNL1       -0.2703
     25 P          21.3546   72.7300   -5.4306 P.3     1  UNL1        0.2208
     26 O          21.8341   72.3077   -6.9165 O.3     1  UNL1       -0.4371
     27 O          21.4150   74.2052   -5.1555 O.2     1  UNL1       -0.5170
     28 O          19.8845   72.0827   -5.2765 O.3     1  UNL1       -0.2858
     29 O          19.3001   69.8501   -4.7533 O.3     1  UNL1       -0.3226
     30 O          16.1104   71.0506   -7.1332 O.3     1  UNL1       -0.3794
     31 O          18.8402   71.8154   -7.8182 O.3     1  UNL1       -0.3775
     32 O          16.7286   68.8644   -5.5621 O.3     1  UNL1       -0.3792
     33 C          17.1669   71.1573   -6.1831 C.3     1  UNL1        0.1718
     34 C          18.5123   70.8331   -6.8413 C.3     1  UNL1        0.1968
     35 C          16.8985   70.1834   -5.0325 C.3     1  UNL1        0.1723
     36 C          19.6304   70.7770   -5.7929 C.3     1  UNL1        0.2706
     37 C          18.0885   70.1791   -4.0755 C.3     1  UNL1        0.1830
     38 H          15.2799   71.2613   -6.6733 H       1  UNL1        0.2105
     39 H          19.7011   71.5741   -8.1995 H       1  UNL1        0.2106
     40 H          17.5985   68.5266   -5.8346 H       1  UNL1        0.2106
     41 O          18.1801   67.9083   -3.4934 O.co2   1  UNL1       -0.5466
     42 O          17.6124   69.3799   -1.8474 O.co2   1  UNL1       -0.5466
     43 C          17.9266   69.1466   -3.0056 C.2     1  UNL1        0.0799
@<TRIPOS>UNITY_ATOM_ATTR
41 1
charge -1
@<TRIPOS>BOND
     1     1     4    1
     2     1    24    1
     3     1     2    1
     4     1     3    2
     5    25    28    1
     6    25    24    1
     7    25    26    1
     8    25    27    2
     9     6    11    1
    10     6    12    1
    11    29    36    1
    12    29    37    1
    13     7     9    1
    14     7    13    1
    15     8    10    1
    16     8    14    1
    17     4     5    1
    18    28    36    1
    19    30    33    1
    20    30    38    1
    21    31    34    1
    22    31    39    1
    23    32    35    1
    24    32    40    1
    25    41    43   ar
    26    15    19    2
    27    42    43   ar
    28    16    22    2
    29    17    12    1
    30    17    19   ar
    31    17    20   ar
    32    18    19   ar
    33    18    22   ar
    34    18    23    1
    35     9    10    1
    36     9    11    1
    37    10    12    1
    38    11     5    1
    39    33    34    1
    40    33    35    1
    41    34    36    1
    42    35    37    1
    43    37    43    1
    44    20    21   ar
    45    21    22   ar
@<TRIPOS>MOLECULE
UDP-glaA
 43 45 0 0 0
SMALL
GASTEIGER

@<TRIPOS>ATOM
      1 P          21.9149   72.4426   -5.7807 P.3     1  UNL1        0.2189
      2 O          21.1148   73.7823   -5.3536 O.3     1  UNL1       -0.4371
      3 O          23.1308   72.6748   -6.6291 O.2     1  UNL1       -0.5170
      4 O          20.7743   71.4980   -6.4306 O.3     1  UNL1       -0.3112
      5 C          20.1734   71.9022   -7.6491 C.3     1  UNL1        0.1811
      6 O          18.9115   69.9020   -7.2229 O.3     1  UNL1       -0.3308
      7 O          18.1017   70.0221  -10.1075 O.3     1  UNL1       -0.3794
      8 O          15.9107   71.0258   -8.8316 O.3     1  UNL1       -0.3779
      9 C          18.3154   71.0896   -9.1842 C.3     1  UNL1        0.1713
     10 C          17.1665   71.1717   -8.2014 C.3     1  UNL1        0.1895
     11 C          19.4800   70.7039   -8.2817 C.3     1  UNL1        0.1764
     12 C          17.4802   70.0274   -7.2526 C.3     1  UNL1        0.2383
     13 H          18.8789   69.9833  -10.6907 H       1  UNL1        0.2105
     14 H          15.8341   71.7302   -9.4981 H       1  UNL1        0.2106
     15 O          16.3015   68.0706   -5.5923 O.2     1  UNL1       -0.2464
     16 O          15.6916   71.0863   -2.1612 O.2     1  UNL1       -0.2670
     17 N          17.0051   70.2734   -5.9211 N.ar    1  UNL1       -0.2551
     18 N          15.9981   69.5737   -3.8851 N.ar    1  UNL1       -0.2743
     19 C          16.4283   69.2218   -5.1712 C.ar    1  UNL1        0.3323
     20 C          17.1127   71.5457   -5.3707 C.ar    1  UNL1        0.0869
     21 C          16.6982   71.8652   -4.1427 C.ar    1  UNL1        0.0795
     22 C          16.0835   70.8249   -3.2944 C.ar    1  UNL1        0.2626
     23 H          15.5796   68.8336   -3.3280 H       1  UNL1        0.1734
     24 O          22.2112   71.7290   -4.3600 O.3     1  UNL1       -0.2703
     25 P          23.4251   71.9205   -3.3101 P.3     1  UNL1        0.2208
     26 O          24.1966   73.2275   -3.8692 O.3     1  UNL1       -0.4371
     27 O          24.2966   70.7080   -3.1484 O.2     1  UNL1       -0.5170
     28 O          22.7143   72.4169   -1.9492 O.3     1  UNL1       -0.2858
     29 O          22.9227   70.8746   -0.1666 O.3     1  UNL1       -0.3226
     30 O          20.2523   73.6525    1.3928 O.3     1  UNL1       -0.3794
     31 O          20.0373   72.7876   -1.3842 O.3     1  UNL1       -0.3775
     32 O          21.6662   71.4780    2.3426 O.3     1  UNL1       -0.3792
     33 C          21.3470   73.1518    0.6304 C.3     1  UNL1        0.1718
     34 C          20.8546   72.1431   -0.4129 C.3     1  UNL1        0.1968
     35 C          22.3445   72.4803    1.5783 C.3     1  UNL1        0.1723
     36 C          22.0384   71.4720   -1.1206 C.3     1  UNL1        0.2706
     37 C          23.4536   71.8133    0.7676 C.3     1  UNL1        0.1830
     38 H          20.6101   74.2836    2.0403 H       1  UNL1        0.2105
     39 H          19.7581   72.1136   -2.0266 H       1  UNL1        0.2106
     40 H          21.4858   70.7178    1.7640 H       1  UNL1        0.2106
     41 O          23.9016   70.9727    2.9115 O.co2   1  UNL1       -0.5466
     42 O          25.4269   70.5193    1.2790 O.co2   1  UNL1       -0.5466
     43 C          24.3808   71.0347    1.6457 C.2     1  UNL1        0.0799
@<TRIPOS>UNITY_ATOM_ATTR
41 1
charge -1
@<TRIPOS>BOND
     1     1     4    1
     2     1    24    1
     3     1     2    1
     4     1     3    2
     5    25    28    1
     6    25    24    1
     7    25    26    1
     8    25    27    2
     9     6    11    1
    10     6    12    1
    11    29    36    1
    12    29    37    1
    13     7     9    1
    14     7    13    1
    15     8    10    1
    16     8    14    1
    17     4     5    1
    18    28    36    1
    19    30    33    1
    20    30    38    1
    21    31    34    1
    22    31    39    1
    23    32    35    1
    24    32    40    1
    25    41    43   ar
    26    15    19    2
    27    42    43   ar
    28    16    22    2
    29    17    12    1
    30    17    19   ar
    31    17    20   ar
    32    18    19   ar
    33    18    22   ar
    34    18    23    1
    35     9    10    1
    36     9    11    1
    37    10    12    1
    38    11     5    1
    39    33    34    1
    40    33    35    1
    41    34    36    1
    42    35    37    1
    43    37    43    1
    44    20    21   ar
    45    21    22   ar
@<TRIPOS>MOLECULE
UDP-glaA
 43 45 0 0 0
SMALL
GASTEIGER

@<TRIPOS>ATOM
      1 P          22.6652   72.7488   -4.3028 P.3     1  UNL1        0.2189
      2 O          24.2562   72.4599   -4.2524 O.3     1  UNL1       -0.4371
      3 O          22.2627   74.1430   -3.9201 O.2     1  UNL1       -0.5170
      4 O          22.0251   71.5622   -3.4096 O.3     1  UNL1       -0.3112
      5 C          21.4079   71.8984   -2.1786 C.3     1  UNL1        0.1811
      6 O          23.3549   71.5974   -0.8027 O.3     1  UNL1       -0.3308
      7 O          21.5902   69.9980    1.0191 O.3     1  UNL1       -0.3794
      8 O          21.7321   72.4061    2.2906 O.3     1  UNL1       -0.3779
      9 C          21.2790   71.1610    0.2521 C.3     1  UNL1        0.1713
     10 C          21.8953   72.3895    0.8875 C.3     1  UNL1        0.1895
     11 C          22.0358   71.0705   -1.0664 C.3     1  UNL1        0.1764
     12 C          23.3507   72.2643    0.4703 C.3     1  UNL1        0.2383
     13 H          21.2091   69.2337    0.5542 H       1  UNL1        0.2105
     14 H          20.7775   72.3754    2.4746 H       1  UNL1        0.2106
     15 O          24.6866   73.6141    2.5604 O.2     1  UNL1       -0.2464
     16 O          25.7767   77.1569   -0.1780 O.2     1  UNL1       -0.2670
     17 N          23.9929   73.5401    0.3314 N.ar    1  UNL1       -0.2551
     18 N          25.2281   75.3776    1.1955 N.ar    1  UNL1       -0.2743
     19 C          24.6353   74.1325    1.4436 C.ar    1  UNL1        0.3323
     20 C          23.9819   74.1916   -0.8970 C.ar    1  UNL1        0.0869
     21 C          24.5520   75.3782   -1.1176 C.ar    1  UNL1        0.0795
     22 C          25.2430   76.0649   -0.0083 C.ar    1  UNL1        0.2626
     23 H          25.6953   75.8225    1.9810 H       1  UNL1        0.1734
     24 O          22.2672   72.3230   -5.8113 O.3     1  UNL1       -0.2703
     25 P          21.0093   72.7440   -6.7349 P.3     1  UNL1        0.2208
     26 O          21.1283   71.7453   -8.0016 O.3     1  UNL1       -0.4371
     27 O          20.9706   74.2014   -7.0958 O.2     1  UNL1       -0.5170
     28 O          19.7146   72.2233   -5.9245 O.3     1  UNL1       -0.2858
     29 O          19.0043   70.0968   -5.1675 O.3     1  UNL1       -0.3226
     30 O          15.4270   71.8263   -6.3886 O.3     1  UNL1       -0.3794
     31 O          17.8556   72.1754   -7.9652 O.3     1  UNL1       -0.3775
     32 O          16.1917   69.5374   -5.0446 O.3     1  UNL1       -0.3792
     33 C          16.7427   71.7481   -5.8474 C.3     1  UNL1        0.1718
     34 C          17.7259   71.2345   -6.9047 C.3     1  UNL1        0.1968
     35 C          16.7274   70.8026   -4.6431 C.3     1  UNL1        0.1723
     36 C          19.1068   70.9839   -6.2862 C.3     1  UNL1        0.2706
     37 C          18.1528   70.5941   -4.1362 C.3     1  UNL1        0.1830
     38 H          14.8395   72.1526   -5.6857 H       1  UNL1        0.2105
     39 H          18.4928   71.8124   -8.6032 H       1  UNL1        0.2106
     40 H          16.8588   69.0754   -5.5800 H       1  UNL1        0.2106
     41 O          18.0768   68.3248   -3.5461 O.co2   1  UNL1       -0.5466
     42 O          18.3365   69.8295   -1.8534 O.co2   1  UNL1       -0.5466
     43 C          18.2009   69.5760   -3.0416 C.2     1  UNL1        0.0799
@<TRIPOS>UNITY_ATOM_ATTR
41 1
charge -1
@<TRIPOS>BOND
     1     1     4    1
     2     1    24    1
     3     1     2    1
     4     1     3    2
     5    25    28    1
     6    25    24    1
     7    25    26    1
     8    25    27    2
     9     6    11    1
    10     6    12    1
    11    29    36    1
    12    29    37    1
    13     7     9    1
    14     7    13    1
    15     8    10    1
    16     8    14    1
    17     4     5    1
    18    28    36    1
    19    30    33    1
    20    30    38    1
    21    31    34    1
    22    31    39    1
    23    32    35    1
    24    32    40    1
    25    41    43   ar
    26    15    19    2
    27    42    43   ar
    28    16    22    2
    29    17    12    1
    30    17    19   ar
    31    17    20   ar
    32    18    19   ar
    33    18    22   ar
    34    18    23    1
    35     9    10    1
    36     9    11    1
    37    10    12    1
    38    11     5    1
    39    33    34    1
    40    33    35    1
    41    34    36    1
    42    35    37    1
    43    37    43    1
    44    20    21   ar
    45    21    22   ar
@<TRIPOS>MOLECULE
UDP-glaA
 43 45 0 0 0
SMALL
GASTEIGER

@<TRIPOS>ATOM
      1 P          23.5453   74.5235   -2.9216 P.3     1  UNL1        0.2189
      2 O          24.7371   74.1754   -3.9588 O.3     1  UNL1       -0.4371
      3 O          23.1379   75.9674   -2.8871 O.2     1  UNL1       -0.5170
      4 O          24.0567   73.9036   -1.5181 O.3     1  UNL1       -0.3112
      5 C          23.1571   73.8733   -0.4231 C.3     1  UNL1        0.1811
      6 O          24.2788   72.0059    0.5912 O.3     1  UNL1       -0.3308
      7 O          21.5453   70.9301    1.1924 O.3     1  UNL1       -0.3794
      8 O          22.3073   71.9913    3.5859 O.3     1  UNL1       -0.3779
      9 C          22.0037   72.2819    1.1913 C.3     1  UNL1        0.1713
     10 C          22.8609   72.5467    2.4110 C.3     1  UNL1        0.1895
     11 C          23.0077   72.4365    0.0565 C.3     1  UNL1        0.1764
     12 C          24.1761   71.8944    2.0203 C.3     1  UNL1        0.2383
     13 H          21.0348   70.7965    0.3756 H       1  UNL1        0.2105
     14 H          21.4236   72.3800    3.7052 H       1  UNL1        0.2106
     15 O          26.7075   70.6883    2.3567 O.2     1  UNL1       -0.2464
     16 O          28.4461   74.4655    4.3440 O.2     1  UNL1       -0.2670
     17 N          25.3081   72.5395    2.6218 N.ar    1  UNL1       -0.2551
     18 N          27.5714   72.5698    3.3465 N.ar    1  UNL1       -0.2743
     19 C          26.5345   71.8454    2.7439 C.ar    1  UNL1        0.3323
     20 C          25.1966   73.8463    3.0836 C.ar    1  UNL1        0.0869
     21 C          26.1947   74.5235    3.6554 C.ar    1  UNL1        0.0795
     22 C          27.5084   73.8706    3.8217 C.ar    1  UNL1        0.2626
     23 H          28.4622   72.0905    3.4454 H       1  UNL1        0.1734
     24 O          22.3712   73.5028   -3.3630 O.3     1  UNL1       -0.2703
     25 P          22.4386   72.0531   -4.0746 P.3     1  UNL1        0.2208
     26 O          23.5789   71.2775   -3.2294 O.3     1  UNL1       -0.4371
     27 O          22.6910   72.1044   -5.5543 O.2     1  UNL1       -0.5170
     28 O          21.0581   71.3286   -3.6585 O.3     1  UNL1       -0.2858
     29 O          19.3455   69.8471   -4.3454 O.3     1  UNL1       -0.3226
     30 O          17.2703   73.4177   -3.8720 O.3     1  UNL1       -0.3794
     31 O          19.9186   73.3939   -5.0934 O.3     1  UNL1       -0.3775
     32 O          16.6286   70.7727   -4.3435 O.3     1  UNL1       -0.3792
     33 C          18.2496   72.4128   -3.6242 C.3     1  UNL1        0.1718
     34 C          19.1441   72.2235   -4.8540 C.3     1  UNL1        0.1968
     35 C          17.5376   71.0998   -3.2873 C.3     1  UNL1        0.1723
     36 C          20.0876   71.0298   -4.6610 C.3     1  UNL1        0.2706
     37 C          18.5651   69.9773   -3.1581 C.3     1  UNL1        0.1830
     38 H          16.7268   73.5017   -3.0700 H       1  UNL1        0.2105
     39 H          20.4739   73.2239   -5.8729 H       1  UNL1        0.2106
     40 H          17.1424   70.4637   -5.1087 H       1  UNL1        0.2106
     41 O          16.9003   68.7486   -2.0524 O.co2   1  UNL1       -0.5466
     42 O          18.2178   67.6169   -3.5292 O.co2   1  UNL1       -0.5466
     43 C          17.9040   68.6508   -2.9573 C.2     1  UNL1        0.0799
@<TRIPOS>UNITY_ATOM_ATTR
41 1
charge -1
@<TRIPOS>BOND
     1     1     4    1
     2     1    24    1
     3     1     2    1
     4     1     3    2
     5    25    28    1
     6    25    24    1
     7    25    26    1
     8    25    27    2
     9     6    11    1
    10     6    12    1
    11    29    36    1
    12    29    37    1
    13     7     9    1
    14     7    13    1
    15     8    10    1
    16     8    14    1
    17     4     5    1
    18    28    36    1
    19    30    33    1
    20    30    38    1
    21    31    34    1
    22    31    39    1
    23    32    35    1
    24    32    40    1
    25    41    43   ar
    26    15    19    2
    27    42    43   ar
    28    16    22    2
    29    17    12    1
    30    17    19   ar
    31    17    20   ar
    32    18    19   ar
    33    18    22   ar
    34    18    23    1
    35     9    10    1
    36     9    11    1
    37    10    12    1
    38    11     5    1
    39    33    34    1
    40    33    35    1
    41    34    36    1
    42    35    37    1
    43    37    43    1
    44    20    21   ar
    45    21    22   ar
@<TRIPOS>MOLECULE
UDP-glaA
 43 45 0 0 0
SMALL
GASTEIGER

@<TRIPOS>ATOM
      1 P          23.2590   72.4863   -3.6203 P.3     1  UNL1        0.2189
      2 O          23.3422   71.0218   -2.9378 O.3     1  UNL1       -0.4371
      3 O          24.5656   73.0243   -4.1256 O.2     1  UNL1       -0.5170
      4 O          22.5083   73.3915   -2.5101 O.3     1  UNL1       -0.3112
      5 C          21.1258   73.1768   -2.2830 C.3     1  UNL1        0.1811
      6 O          20.7657   73.4246    0.0799 O.3     1  UNL1       -0.3308
      7 O          20.7158   76.3795   -0.4270 O.3     1  UNL1       -0.3794
      8 O          23.2316   75.9851    0.5482 O.3     1  UNL1       -0.3779
      9 C          21.5076   75.3693   -1.0516 C.3     1  UNL1        0.1713
     10 C          22.6038   74.9072   -0.1149 C.3     1  UNL1        0.1895
     11 C          20.6518   74.1163   -1.1833 C.3     1  UNL1        0.1764
     12 C          21.8439   73.9990    0.8368 C.3     1  UNL1        0.2383
     13 H          20.0053   76.6157   -1.0474 H       1  UNL1        0.2105
     14 H          23.5979   76.5745   -0.1333 H       1  UNL1        0.2106
     15 O          21.4187   72.7287    3.3229 O.2     1  UNL1       -0.2464
     16 O          25.0545   69.9583    2.7361 O.2     1  UNL1       -0.2670
     17 N          22.6634   72.9426    1.3582 N.ar    1  UNL1       -0.2551
     18 N          23.2298   71.3503    3.0293 N.ar    1  UNL1       -0.2743
     19 C          22.3646   72.3728    2.6179 C.ar    1  UNL1        0.3323
     20 C          23.7501   72.4815    0.6235 C.ar    1  UNL1        0.0869
     21 C          24.5653   71.5055    1.0293 C.ar    1  UNL1        0.0795
     22 C          24.3233   70.8580    2.3339 C.ar    1  UNL1        0.2626
     23 H          23.0345   70.9264    3.9322 H       1  UNL1        0.1734
     24 O          22.1256   72.2922   -4.7573 O.3     1  UNL1       -0.2703
     25 P          21.8288   73.1237   -6.1113 P.3     1  UNL1        0.2208
     26 O          22.9734   72.5997   -7.1269 O.3     1  UNL1       -0.4371
     27 O          21.7999   74.6137   -5.9253 O.2     1  UNL1       -0.5170
     28 O          20.4566   72.4966   -6.6838 O.3     1  UNL1       -0.2858
     29 O          19.4545   70.7598   -5.4272 O.3     1  UNL1       -0.3226
     30 O          17.4228   70.5017   -9.0445 O.3     1  UNL1       -0.3794
     31 O          20.2977   70.9893   -8.9915 O.3     1  UNL1       -0.3775
     32 O          17.1991   69.3716   -6.5340 O.3     1  UNL1       -0.3792
     33 C          18.1052   71.1066   -7.9496 C.3     1  UNL1        0.1718
     34 C          19.5410   70.5790   -7.8575 C.3     1  UNL1        0.1968
     35 C          17.3469   70.7900   -6.6577 C.3     1  UNL1        0.1723
     36 C          20.2275   71.0916   -6.5854 C.3     1  UNL1        0.2706
     37 C          18.1377   71.3081   -5.4584 C.3     1  UNL1        0.1830
     38 H          16.5199   70.8623   -9.0628 H       1  UNL1        0.2105
     39 H          21.1989   70.6411   -8.8844 H       1  UNL1        0.2106
     40 H          18.0602   68.9915   -6.2905 H       1  UNL1        0.2106
     41 O          18.0270   69.7458   -3.7118 O.co2   1  UNL1       -0.5466
     42 O          16.6218   71.5369   -3.5930 O.co2   1  UNL1       -0.5466
     43 C          17.4985   70.9073   -4.1669 C.2     1  UNL1        0.0799
@<TRIPOS>UNITY_ATOM_ATTR
41 1
charge -1
@<TRIPOS>BOND
     1     1     4    1
     2     1    24    1
     3     1     2    1
     4     1     3    2
     5    25    28    1
     6    25    24    1
     7    25    26    1
     8    25    27    2
     9     6    11    1
    10     6    12    1
    11    29    36    1
    12    29    37    1
    13     7     9    1
    14     7    13    1
    15     8    10    1
    16     8    14    1
    17     4     5    1
    18    28    36    1
    19    30    33    1
    20    30    38    1
    21    31    34    1
    22    31    39    1
    23    32    35    1
    24    32    40    1
    25    41    43   ar
    26    15    19    2
    27    42    43   ar
    28    16    22    2
    29    17    12    1
    30    17    19   ar
    31    17    20   ar
    32    18    19   ar
    33    18    22   ar
    34    18    23    1
    35     9    10    1
    36     9    11    1
    37    10    12    1
    38    11     5    1
    39    33    34    1
    40    33    35    1
    41    34    36    1
    42    35    37    1
    43    37    43    1
    44    20    21   ar
    45    21    22   ar
@<TRIPOS>MOLECULE
UDP-glaA
 43 45 0 0 0
SMALL
GASTEIGER

@<TRIPOS>ATOM
      1 P          22.2262   71.3594   -2.7935 P.3     1  UNL1        0.2189
      2 O          22.2363   72.9772   -2.7912 O.3     1  UNL1       -0.4371
      3 O          23.5796   70.7181   -2.8882 O.2     1  UNL1       -0.5170
      4 O          21.1837   70.9779   -3.9696 O.3     1  UNL1       -0.3112
      5 C          20.2251   69.9634   -3.7223 C.3     1  UNL1        0.1811
      6 O          18.5810   71.3517   -4.7919 O.3     1  UNL1       -0.3308
      7 O          16.6203   70.2242   -2.8232 O.3     1  UNL1       -0.3794
      8 O          16.0879   68.7911   -5.0812 O.3     1  UNL1       -0.3779
      9 C          17.7229   69.5854   -3.4667 C.3     1  UNL1        0.1713
     10 C          17.3935   69.3051   -4.9177 C.3     1  UNL1        0.1895
     11 C          18.8503   70.6024   -3.5864 C.3     1  UNL1        0.1764
     12 C          17.5653   70.6754   -5.5509 C.3     1  UNL1        0.2383
     13 H          16.8911   70.4189   -1.9097 H       1  UNL1        0.2105
     14 H          16.0279   67.9729   -4.5586 H       1  UNL1        0.2106
     15 O          15.8068   70.3333   -7.7341 O.2     1  UNL1       -0.2464
     16 O          19.2734   70.3878  -10.7703 O.2     1  UNL1       -0.2670
     17 N          17.9809   70.5974   -6.9222 N.ar    1  UNL1       -0.2551
     18 N          17.5343   70.3601   -9.2445 N.ar    1  UNL1       -0.2743
     19 C          17.0179   70.4238   -7.9436 C.ar    1  UNL1        0.3323
     20 C          19.3303   70.6926   -7.2440 C.ar    1  UNL1        0.0869
     21 C          19.8068   70.6305   -8.4893 C.ar    1  UNL1        0.0795
     22 C          18.8675   70.4494   -9.6138 C.ar    1  UNL1        0.2626
     23 H          16.8602   70.2350   -9.9949 H       1  UNL1        0.1734
     24 O          21.4034   71.0003   -1.4484 O.3     1  UNL1       -0.2703
     25 P          21.7806   71.2005    0.1105 P.3     1  UNL1        0.2208
     26 O          23.2481   71.8782    0.0531 O.3     1  UNL1       -0.4371
     27 O          21.7103   69.9423    0.9277 O.2     1  UNL1       -0.5170
     28 O          20.8052   72.3811    0.6190 O.3     1  UNL1       -0.2858
     29 O          21.5085   74.6404    0.6298 O.3     1  UNL1       -0.3226
     30 O          18.3259   74.7061    3.3031 O.3     1  UNL1       -0.3794
     31 O          20.2265   72.4940    3.3162 O.3     1  UNL1       -0.3775
     32 O          19.9474   76.5714    2.0695 O.3     1  UNL1       -0.3792
     33 C          19.0948   74.3135    2.1695 C.3     1  UNL1        0.1718
     34 C          20.4337   73.7145    2.6132 C.3     1  UNL1        0.1968
     35 C          19.3369   75.5406    1.2862 C.3     1  UNL1        0.1723
     36 C          21.3373   73.4480    1.4030 C.3     1  UNL1        0.2706
     37 C          20.2776   75.1712    0.1413 C.3     1  UNL1        0.1830
     38 H          17.4906   75.0808    2.9754 H       1  UNL1        0.2105
     39 H          21.0995   72.1485    3.5679 H       1  UNL1        0.2106
     40 H          20.8745   76.3278    2.2321 H       1  UNL1        0.2106
     41 O          21.7696   76.1344   -1.3917 O.co2   1  UNL1       -0.5466
     42 O          20.0213   77.4214   -0.6960 O.co2   1  UNL1       -0.5466
     43 C          20.6454   76.3705   -0.6733 C.2     1  UNL1        0.0799
@<TRIPOS>UNITY_ATOM_ATTR
41 1
charge -1
@<TRIPOS>BOND
     1     1     4    1
     2     1    24    1
     3     1     2    1
     4     1     3    2
     5    25    28    1
     6    25    24    1
     7    25    26    1
     8    25    27    2
     9     6    11    1
    10     6    12    1
    11    29    36    1
    12    29    37    1
    13     7     9    1
    14     7    13    1
    15     8    10    1
    16     8    14    1
    17     4     5    1
    18    28    36    1
    19    30    33    1
    20    30    38    1
    21    31    34    1
    22    31    39    1
    23    32    35    1
    24    32    40    1
    25    41    43   ar
    26    15    19    2
    27    42    43   ar
    28    16    22    2
    29    17    12    1
    30    17    19   ar
    31    17    20   ar
    32    18    19   ar
    33    18    22   ar
    34    18    23    1
    35     9    10    1
    36     9    11    1
    37    10    12    1
    38    11     5    1
    39    33    34    1
    40    33    35    1
    41    34    36    1
    42    35    37    1
    43    37    43    1
    44    20    21   ar
    45    21    22   ar
@<TRIPOS>MOLECULE
UDP-glaA
 43 45 0 0 0
SMALL
GASTEIGER

@<TRIPOS>ATOM
      1 P          23.4360   71.9328   -2.9126 P.3     1  UNL1        0.2189
      2 O          24.1725   73.2340   -3.5305 O.3     1  UNL1       -0.4371
      3 O          24.2360   70.6645   -2.9726 O.2     1  UNL1       -0.5170
      4 O          22.0065   71.8985   -3.6683 O.3     1  UNL1       -0.3112
      5 C          21.2112   70.7302   -3.5606 C.3     1  UNL1        0.1811
      6 O          19.2145   71.7618   -4.4111 O.3     1  UNL1       -0.3308
      7 O          17.7808   70.4222   -2.1436 O.3     1  UNL1       -0.3794
      8 O          17.1938   68.8038   -4.2584 O.3     1  UNL1       -0.3779
      9 C          18.8759   69.9470   -2.9263 C.3     1  UNL1        0.1713
     10 C          18.3988   69.5396   -4.3043 C.3     1  UNL1        0.1895
     11 C          19.7789   71.1328   -3.2393 C.3     1  UNL1        0.1764
     12 C          18.2361   70.8842   -4.9925 C.3     1  UNL1        0.2383
     13 H          18.1396   70.7074   -1.2860 H       1  UNL1        0.2105
     14 H          17.3529   68.0156   -3.7109 H       1  UNL1        0.2106
     15 O          20.6828   70.1242   -6.1805 O.2     1  UNL1       -0.2464
     16 O          18.9826   70.6237  -10.4347 O.2     1  UNL1       -0.2670
     17 N          18.4606   70.8065   -6.4077 N.ar    1  UNL1       -0.2551
     18 N          19.8347   70.3740   -8.2981 N.ar    1  UNL1       -0.2743
     19 C          19.7268   70.4149   -6.9017 C.ar    1  UNL1        0.3323
     20 C          17.4323   71.1168   -7.2907 C.ar    1  UNL1        0.0869
     21 C          17.5508   71.0725   -8.6196 C.ar    1  UNL1        0.0795
     22 C          18.8408   70.6739   -9.2167 C.ar    1  UNL1        0.2626
     23 H          20.7364   70.0956   -8.6758 H       1  UNL1        0.1734
     24 O          23.0455   72.4127   -1.4185 O.3     1  UNL1       -0.2703
     25 P          22.8381   71.5705   -0.0546 P.3     1  UNL1        0.2208
     26 O          24.3242   71.0221    0.2725 O.3     1  UNL1       -0.4371
     27 O          21.7883   70.5001   -0.1452 O.2     1  UNL1       -0.5170
     28 O          22.5564   72.6865    1.0763 O.3     1  UNL1       -0.2858
     29 O          23.6114   74.5775    2.0305 O.3     1  UNL1       -0.3226
     30 O          22.4203   72.4525    5.3988 O.3     1  UNL1       -0.3794
     31 O          23.5302   71.0639    3.0867 O.3     1  UNL1       -0.3775
     32 O          23.4907   74.9445    4.8747 O.3     1  UNL1       -0.3792
     33 C          22.3717   72.9613    4.0687 C.3     1  UNL1        0.1718
     34 C          23.5831   72.4752    3.2659 C.3     1  UNL1        0.1968
     35 C          22.3594   74.4914    4.1238 C.3     1  UNL1        0.1723
     36 C          23.6310   73.1530    1.8909 C.3     1  UNL1        0.2706
     37 C          22.4509   75.0567    2.7081 C.3     1  UNL1        0.1830
     38 H          21.6378   72.7867    5.8695 H       1  UNL1        0.2105
     39 H          24.3096   70.8047    2.5669 H       1  UNL1        0.2106
     40 H          24.2886   74.8279    4.3316 H       1  UNL1        0.2106
     41 O          23.8582   76.9206    2.9295 O.co2   1  UNL1       -0.5466
     42 O          21.6454   77.3282    2.5625 O.co2   1  UNL1       -0.5466
     43 C          22.5726   76.5473    2.7209 C.2     1  UNL1        0.0799
@<TRIPOS>UNITY_ATOM_ATTR
41 1
charge -1
@<TRIPOS>BOND
     1     1     4    1
     2     1    24    1
     3     1     2    1
     4     1     3    2
     5    25    28    1
     6    25    24    1
     7    25    26    1
     8    25    27    2
     9     6    11    1
    10     6    12    1
    11    29    36    1
    12    29    37    1
    13     7     9    1
    14     7    13    1
    15     8    10    1
    16     8    14    1
    17     4     5    1
    18    28    36    1
    19    30    33    1
    20    30    38    1
    21    31    34    1
    22    31    39    1
    23    32    35    1
    24    32    40    1
    25    41    43   ar
    26    15    19    2
    27    42    43   ar
    28    16    22    2
    29    17    12    1
    30    17    19   ar
    31    17    20   ar
    32    18    19   ar
    33    18    22   ar
    34    18    23    1
    35     9    10    1
    36     9    11    1
    37    10    12    1
    38    11     5    1
    39    33    34    1
    40    33    35    1
    41    34    36    1
    42    35    37    1
    43    37    43    1
    44    20    21   ar
    45    21    22   ar
@<TRIPOS>MOLECULE
UDP-glaA
 43 45 0 0 0
SMALL
GASTEIGER

@<TRIPOS>ATOM
      1 P          20.9333   73.4828   -1.4190 P.3     1  UNL1        0.2189
      2 O          19.5643   72.9126   -0.7723 O.3     1  UNL1       -0.4371
      3 O          21.3564   74.8323   -0.9170 O.2     1  UNL1       -0.5170
      4 O          20.6870   73.3715   -3.0135 O.3     1  UNL1       -0.3112
      5 C          20.3454   72.1088   -3.5597 C.3     1  UNL1        0.1811
      6 O          20.7728   70.8047   -5.5322 O.3     1  UNL1       -0.3308
      7 O          23.1666   72.5620   -5.9485 O.3     1  UNL1       -0.3794
      8 O          21.3498   73.6074   -7.6928 O.3     1  UNL1       -0.3779
      9 C          21.8798   72.8967   -5.4289 C.3     1  UNL1        0.1713
     10 C          20.8587   72.9447   -6.5459 C.3     1  UNL1        0.1895
     11 C          21.3879   71.7189   -4.5979 C.3     1  UNL1        0.1764
     12 C          20.5917   71.4697   -6.7933 C.3     1  UNL1        0.2383
     13 H          23.7776   72.5046   -5.1943 H       1  UNL1        0.2105
     14 H          21.5987   74.5090   -7.4257 H       1  UNL1        0.2106
     15 O          19.9181   69.5598   -8.7615 O.2     1  UNL1       -0.2464
     16 O          15.4398   70.6200   -8.5190 O.2     1  UNL1       -0.2670
     17 N          19.2579   71.2253   -7.2629 N.ar    1  UNL1       -0.2551
     18 N          17.6886   70.0894   -8.6398 N.ar    1  UNL1       -0.2743
     19 C          19.0270   70.2441   -8.2552 C.ar    1  UNL1        0.3323
     20 C          18.1949   71.9542   -6.7413 C.ar    1  UNL1        0.0869
     21 C          16.9243   71.7945   -7.1180 C.ar    1  UNL1        0.0795
     22 C          16.5977   70.7908   -8.1502 C.ar    1  UNL1        0.2626
     23 H          17.4990   69.3899   -9.3525 H       1  UNL1        0.1734
     24 O          21.9921   72.2948   -1.1313 O.3     1  UNL1       -0.2703
     25 P          22.3101   71.4613    0.2166 P.3     1  UNL1        0.2208
     26 O          23.7530   70.7976   -0.0893 O.3     1  UNL1       -0.4371
     27 O          21.2426   70.4759    0.5977 O.2     1  UNL1       -0.5170
     28 O          22.6071   72.5876    1.3333 O.3     1  UNL1       -0.2858
     29 O          24.2920   72.6934    2.9914 O.3     1  UNL1       -0.3226
     30 O          21.1066   74.5978    4.8638 O.3     1  UNL1       -0.3794
     31 O          20.6647   72.2039    3.2575 O.3     1  UNL1       -0.3775
     32 O          23.7894   74.1963    5.3847 O.3     1  UNL1       -0.3792
     33 C          21.9636   74.1843    3.8032 C.3     1  UNL1        0.1718
     34 C          21.9498   72.6578    3.6692 C.3     1  UNL1        0.1968
     35 C          23.3851   74.6717    4.0965 C.3     1  UNL1        0.1723
     36 C          22.9957   72.1927    2.6483 C.3     1  UNL1        0.2706
     37 C          24.3445   74.1182    3.0451 C.3     1  UNL1        0.1830
     38 H          21.1484   75.5680    4.9135 H       1  UNL1        0.2105
     39 H          20.7072   71.2361    3.1774 H       1  UNL1        0.2106
     40 H          23.9761   73.2445    5.3180 H       1  UNL1        0.2106
     41 O          26.1778   75.5216    2.6286 O.co2   1  UNL1       -0.5466
     42 O          26.4620   73.8753    4.1797 O.co2   1  UNL1       -0.5466
     43 C          25.7645   74.4621    3.3650 C.2     1  UNL1        0.0799
@<TRIPOS>UNITY_ATOM_ATTR
41 1
charge -1
@<TRIPOS>BOND
     1     1     4    1
     2     1    24    1
     3     1     2    1
     4     1     3    2
     5    25    28    1
     6    25    24    1
     7    25    26    1
     8    25    27    2
     9     6    11    1
    10     6    12    1
    11    29    36    1
    12    29    37    1
    13     7     9    1
    14     7    13    1
    15     8    10    1
    16     8    14    1
    17     4     5    1
    18    28    36    1
    19    30    33    1
    20    30    38    1
    21    31    34    1
    22    31    39    1
    23    32    35    1
    24    32    40    1
    25    41    43   ar
    26    15    19    2
    27    42    43   ar
    28    16    22    2
    29    17    12    1
    30    17    19   ar
    31    17    20   ar
    32    18    19   ar
    33    18    22   ar
    34    18    23    1
    35     9    10    1
    36     9    11    1
    37    10    12    1
    38    11     5    1
    39    33    34    1
    40    33    35    1
    41    34    36    1
    42    35    37    1
    43    37    43    1
    44    20    21   ar
    45    21    22   ar
@<TRIPOS>MOLECULE
UDP-glaA
 43 45 0 0 0
SMALL
GASTEIGER

@<TRIPOS>ATOM
      1 P          23.5789   72.4382   -3.3797 P.3     1  UNL1        0.2189
      2 O          24.1402   70.9325   -3.1925 O.3     1  UNL1       -0.4371
      3 O          24.6158   73.4592   -3.7463 O.2     1  UNL1       -0.5170
      4 O          22.7644   72.7234   -2.0119 O.3     1  UNL1       -0.3112
      5 C          23.4907   72.8193   -0.7984 C.3     1  UNL1        0.1811
      6 O          24.5574   71.2953    0.7228 O.3     1  UNL1       -0.3308
      7 O          21.8164   70.2027    1.2561 O.3     1  UNL1       -0.3794
      8 O          22.2482   71.8086    3.4172 O.3     1  UNL1       -0.3779
      9 C          22.2183   71.5483    1.0002 C.3     1  UNL1        0.1713
     10 C          22.9145   72.1282    2.2133 C.3     1  UNL1        0.1895
     11 C          23.3423   71.5156   -0.0270 C.3     1  UNL1        0.1764
     12 C          24.2912   71.4925    2.1212 C.3     1  UNL1        0.2383
     13 H          21.4116   69.8611    0.4406 H       1  UNL1        0.2105
     14 H          21.3421   72.1560    3.3514 H       1  UNL1        0.2106
     15 O          26.9879   70.7118    2.4275 O.2     1  UNL1       -0.2464
     16 O          28.1437   74.7712    4.2778 O.2     1  UNL1       -0.2670
     17 N          25.3180   72.3253    2.6793 N.ar    1  UNL1       -0.2551
     18 N          27.5616   72.7335    3.3491 N.ar    1  UNL1       -0.2743
     19 C          26.6411   71.8375    2.7896 C.ar    1  UNL1        0.3323
     20 C          25.0097   73.6107    3.1107 C.ar    1  UNL1        0.0869
     21 C          25.8987   74.4531    3.6416 C.ar    1  UNL1        0.0795
     22 C          27.3022   74.0210    3.7930 C.ar    1  UNL1        0.2626
     23 H          28.5189   72.4040    3.4388 H       1  UNL1        0.1734
     24 O          22.4008   72.2525   -4.4718 O.3     1  UNL1       -0.2703
     25 P          22.0093   73.1336   -5.7692 P.3     1  UNL1        0.2208
     26 O          23.0970   72.6716   -6.8735 O.3     1  UNL1       -0.4371
     27 O          21.9698   74.6140   -5.5193 O.2     1  UNL1       -0.5170
     28 O          20.6139   72.5068   -6.2832 O.3     1  UNL1       -0.2858
     29 O          19.6304   70.3845   -5.9255 O.3     1  UNL1       -0.3226
     30 O          18.4065   71.2701   -9.7981 O.3     1  UNL1       -0.3794
     31 O          21.1206   71.8846   -8.9249 O.3     1  UNL1       -0.3775
     32 O          17.8487   69.3295   -7.9132 O.3     1  UNL1       -0.3792
     33 C          18.7705   71.4993   -8.4397 C.3     1  UNL1        0.1718
     34 C          20.2183   71.0616   -8.1932 C.3     1  UNL1        0.1968
     35 C          17.8228   70.7092   -7.5330 C.3     1  UNL1        0.1723
     36 C          20.5639   71.1434   -6.7011 C.3     1  UNL1        0.2706
     37 C          18.2833   70.8277   -6.0817 C.3     1  UNL1        0.1830
     38 H          17.4844   71.5586   -9.9074 H       1  UNL1        0.2105
     39 H          22.0219   71.5769   -8.7305 H       1  UNL1        0.2106
     40 H          18.6885   68.9422   -7.6133 H       1  UNL1        0.2106
     41 O          18.0143   69.9115   -3.9389 O.co2   1  UNL1       -0.5466
     42 O          16.4337   69.3903   -5.4967 O.co2   1  UNL1       -0.5466
     43 C          17.4629   69.9663   -5.1752 C.2     1  UNL1        0.0799
@<TRIPOS>UNITY_ATOM_ATTR
41 1
charge -1
@<TRIPOS>BOND
     1     1     4    1
     2     1    24    1
     3     1     2    1
     4     1     3    2
     5    25    28    1
     6    25    24    1
     7    25    26    1
     8    25    27    2
     9     6    11    1
    10     6    12    1
    11    29    36    1
    12    29    37    1
    13     7     9    1
    14     7    13    1
    15     8    10    1
    16     8    14    1
    17     4     5    1
    18    28    36    1
    19    30    33    1
    20    30    38    1
    21    31    34    1
    22    31    39    1
    23    32    35    1
    24    32    40    1
    25    41    43   ar
    26    15    19    2
    27    42    43   ar
    28    16    22    2
    29    17    12    1
    30    17    19   ar
    31    17    20   ar
    32    18    19   ar
    33    18    22   ar
    34    18    23    1
    35     9    10    1
    36     9    11    1
    37    10    12    1
    38    11     5    1
    39    33    34    1
    40    33    35    1
    41    34    36    1
    42    35    37    1
    43    37    43    1
    44    20    21   ar
    45    21    22   ar
