@<TRIPOS>MOLECULE
UDP-glaA
 43 45 0 0 0
SMALL
GASTEIGER

@<TRIPOS>ATOM
      1 P          21.9470   71.7928   -3.3137 P.3     1  UNL1        0.2189
      2 O          21.2520   73.2344   -3.0773 O.3     1  UNL1       -0.4371
      3 O          23.3641   71.8462   -3.8047 O.2     1  UNL1       -0.5170
      4 O          20.9021   71.0078   -4.2664 O.3     1  UNL1       -0.3112
      5 C          20.0284   70.0600   -3.6771 C.3     1  UNL1        0.1811
      6 O          18.3817   71.4007   -4.8019 O.3     1  UNL1       -0.3308
      7 O          16.3907   70.2217   -2.8948 O.3     1  UNL1       -0.3794
      8 O          15.9712   68.7715   -5.1657 O.3     1  UNL1       -0.3779
      9 C          17.5307   69.6129   -3.5011 C.3     1  UNL1        0.1713
     10 C          17.2561   69.3217   -4.9614 C.3     1  UNL1        0.1895
     11 C          18.6327   70.6607   -3.5868 C.3     1  UNL1        0.1764
     12 C          17.4101   70.6954   -5.5917 C.3     1  UNL1        0.2383
     13 H          16.6264   70.4250   -1.9736 H       1  UNL1        0.2105
     14 H          15.9171   67.9526   -4.6435 H       1  UNL1        0.2106
     15 O          15.7274   70.3557   -7.8342 O.2     1  UNL1       -0.2464
     16 O          19.2930   70.4459  -10.7526 O.2     1  UNL1       -0.2670
     17 N          17.8717   70.6273   -6.9488 N.ar    1  UNL1       -0.2551
     18 N          17.5041   70.4003   -9.2859 N.ar    1  UNL1       -0.2743
     19 C          16.9442   70.4540   -8.0026 C.ar    1  UNL1        0.3323
     20 C          19.2305   70.7316   -7.2248 C.ar    1  UNL1        0.0869
     21 C          19.7486   70.6790   -8.4539 C.ar    1  UNL1        0.0795
     22 C          18.8483   70.4989   -9.6100 C.ar    1  UNL1        0.2626
     23 H          16.8561   70.2756  -10.0590 H       1  UNL1        0.1734
     24 O          21.7566   71.0600   -1.8847 O.3     1  UNL1       -0.2703
     25 P          21.1745   71.6097   -0.4806 P.3     1  UNL1        0.2208
     26 O          21.1505   70.2895    0.4535 O.3     1  UNL1       -0.4371
     27 O          19.8521   72.3125   -0.5948 O.2     1  UNL1       -0.5170
     28 O          22.3619   72.5181    0.1268 O.3     1  UNL1       -0.2858
     29 O          23.4220   71.8447    2.1322 O.3     1  UNL1       -0.3226
     30 O          24.5531   75.8344    1.8465 O.3     1  UNL1       -0.3794
     31 O          21.8342   75.0140    1.1827 O.3     1  UNL1       -0.3775
     32 O          25.2062   73.6742    3.4392 O.3     1  UNL1       -0.3792
     33 C          24.2034   74.5232    1.4122 C.3     1  UNL1        0.1718
     34 C          22.7753   74.1787    1.8486 C.3     1  UNL1        0.1968
     35 C          25.1916   73.5216    2.0160 C.3     1  UNL1        0.1723
     36 C          22.4511   72.7123    1.5376 C.3     1  UNL1        0.2706
     37 C          24.7507   72.0988    1.6789 C.3     1  UNL1        0.1830
     38 H          25.4631   76.0083    1.5513 H       1  UNL1        0.2105
     39 H          20.9470   74.7535    1.4825 H       1  UNL1        0.2106
     40 H          24.3849   73.2981    3.7986 H       1  UNL1        0.2106
     41 O          24.8822   70.0065    2.7318 O.co2   1  UNL1       -0.5466
     42 O          26.8161   71.1994    2.5479 O.co2   1  UNL1       -0.5466
     43 C          25.6142   71.0832    2.3570 C.2     1  UNL1        0.0799
@<TRIPOS>UNITY_ATOM_ATTR
41 1
charge -1
@<TRIPOS>BOND
     1     1     4    1
     2     1    24    1
     3     1     2    1
     4     1     3    2
     5    25    28    1
     6    25    24    1
     7    25    26    1
     8    25    27    2
     9     6    11    1
    10     6    12    1
    11    29    36    1
    12    29    37    1
    13     7     9    1
    14     7    13    1
    15     8    10    1
    16     8    14    1
    17     4     5    1
    18    28    36    1
    19    30    33    1
    20    30    38    1
    21    31    34    1
    22    31    39    1
    23    32    35    1
    24    32    40    1
    25    41    43   ar
    26    15    19    2
    27    42    43   ar
    28    16    22    2
    29    17    12    1
    30    17    19   ar
    31    17    20   ar
    32    18    19   ar
    33    18    22   ar
    34    18    23    1
    35     9    10    1
    36     9    11    1
    37    10    12    1
    38    11     5    1
    39    33    34    1
    40    33    35    1
    41    34    36    1
    42    35    37    1
    43    37    43    1
    44    20    21   ar
    45    21    22   ar
@<TRIPOS>MOLECULE
UDP-glaA
 43 45 0 0 0
SMALL
GASTEIGER

@<TRIPOS>ATOM
      1 P          22.9448   71.3708   -2.3272 P.3     1  UNL1        0.2189
      2 O          22.5915   72.9301   -2.5740 O.3     1  UNL1       -0.4371
      3 O          24.2123   70.8984   -2.9772 O.2     1  UNL1       -0.5170
      4 O          21.5972   70.5916   -2.7658 O.3     1  UNL1       -0.3112
      5 C          20.9613   70.9667   -3.9758 C.3     1  UNL1        0.1811
      6 O          18.9205   71.8367   -4.8991 O.3     1  UNL1       -0.3308
      7 O          17.5469   70.6136   -2.5309 O.3     1  UNL1       -0.3794
      8 O          17.0370   68.8104   -4.5120 O.3     1  UNL1       -0.3779
      9 C          18.6635   70.1294   -3.2769 C.3     1  UNL1        0.1713
     10 C          18.2072   69.5947   -4.6179 C.3     1  UNL1        0.1895
     11 C          19.5118   71.3273   -3.6834 C.3     1  UNL1        0.1764
     12 C          17.9839   70.8728   -5.4082 C.3     1  UNL1        0.2383
     13 H          17.8913   70.9807   -1.6990 H       1  UNL1        0.2105
     14 H          17.2313   68.0753   -3.9053 H       1  UNL1        0.2106
     15 O          15.9423   70.5037   -7.3241 O.2     1  UNL1       -0.2464
     16 O          18.9828   70.2004  -10.7741 O.2     1  UNL1       -0.2670
     17 N          18.2134   70.6956   -6.8136 N.ar    1  UNL1       -0.2551
     18 N          17.4577   70.3524   -9.0407 N.ar    1  UNL1       -0.2743
     19 C          17.1186   70.5169   -7.6912 C.ar    1  UNL1        0.3323
     20 C          19.5124   70.6997   -7.3098 C.ar    1  UNL1        0.0869
     21 C          19.8193   70.5420   -8.5993 C.ar    1  UNL1        0.0795
     22 C          18.7342   70.3488   -9.5815 C.ar    1  UNL1        0.2626
     23 H          16.6866   70.2217   -9.6899 H       1  UNL1        0.1734
     24 O          22.9278   71.2462   -0.7149 O.3     1  UNL1       -0.2703
     25 P          21.7251   71.4264    0.3498 P.3     1  UNL1        0.2208
     26 O          21.7256   70.0216    1.1514 O.3     1  UNL1       -0.4371
     27 O          20.4045   71.7873   -0.2679 O.2     1  UNL1       -0.5170
     28 O          22.2798   72.5045    1.4147 O.3     1  UNL1       -0.2858
     29 O          24.0204   72.4022    3.0144 O.3     1  UNL1       -0.3226
     30 O          21.1835   74.7343    4.9619 O.3     1  UNL1       -0.3794
     31 O          20.3717   72.4038    3.4077 O.3     1  UNL1       -0.3775
     32 O          23.8056   73.9841    5.3999 O.3     1  UNL1       -0.3792
     33 C          21.9405   74.1990    3.8800 C.3     1  UNL1        0.1718
     34 C          21.7193   72.6866    3.7697 C.3     1  UNL1        0.1968
     35 C          23.4236   74.4954    4.1187 C.3     1  UNL1        0.1723
     36 C          22.6579   72.0753    2.7220 C.3     1  UNL1        0.2706
     37 C          24.2637   73.8078    3.0447 C.3     1  UNL1        0.1830
     38 H          21.3557   75.6908    4.9955 H       1  UNL1        0.2105
     39 H          20.2823   71.4382    3.3409 H       1  UNL1        0.2106
     40 H          23.8616   73.0153    5.3416 H       1  UNL1        0.2106
     41 O          25.9587   75.0449    4.0936 O.co2   1  UNL1       -0.5466
     42 O          26.5999   73.2177    2.8906 O.co2   1  UNL1       -0.5466
     43 C          25.7271   73.9626    3.3123 C.2     1  UNL1        0.0799
@<TRIPOS>UNITY_ATOM_ATTR
41 1
charge -1
@<TRIPOS>BOND
     1     1     4    1
     2     1    24    1
     3     1     2    1
     4     1     3    2
     5    25    28    1
     6    25    24    1
     7    25    26    1
     8    25    27    2
     9     6    11    1
    10     6    12    1
    11    29    36    1
    12    29    37    1
    13     7     9    1
    14     7    13    1
    15     8    10    1
    16     8    14    1
    17     4     5    1
    18    28    36    1
    19    30    33    1
    20    30    38    1
    21    31    34    1
    22    31    39    1
    23    32    35    1
    24    32    40    1
    25    41    43   ar
    26    15    19    2
    27    42    43   ar
    28    16    22    2
    29    17    12    1
    30    17    19   ar
    31    17    20   ar
    32    18    19   ar
    33    18    22   ar
    34    18    23    1
    35     9    10    1
    36     9    11    1
    37    10    12    1
    38    11     5    1
    39    33    34    1
    40    33    35    1
    41    34    36    1
    42    35    37    1
    43    37    43    1
    44    20    21   ar
    45    21    22   ar
@<TRIPOS>MOLECULE
UDP-glaA
 43 45 0 0 0
SMALL
GASTEIGER

@<TRIPOS>ATOM
      1 P          21.6553   72.7884   -5.2986 P.3     1  UNL1        0.2189
      2 O          21.6724   74.3900   -5.5270 O.3     1  UNL1       -0.4371
      3 O          22.4227   71.9957   -6.3159 O.2     1  UNL1       -0.5170
      4 O          20.0836   72.4301   -5.1680 O.3     1  UNL1       -0.3112
      5 C          19.6195   71.8482   -3.9617 C.3     1  UNL1        0.1811
      6 O          17.6703   72.0239   -5.3560 O.3     1  UNL1       -0.3308
      7 O          16.2122   70.5632   -3.1807 O.3     1  UNL1       -0.3794
      8 O          16.6768   68.5960   -5.0110 O.3     1  UNL1       -0.3779
      9 C          17.5551   70.3986   -3.6362 C.3     1  UNL1        0.1713
     10 C          17.5727   69.6875   -4.9728 C.3     1  UNL1        0.1895
     11 C          18.0997   71.7737   -3.9994 C.3     1  UNL1        0.1764
     12 C          17.1778   70.8009   -5.9280 C.3     1  UNL1        0.2383
     13 H          16.2486   71.0563   -2.3434 H       1  UNL1        0.2105
     14 H          16.9322   67.9827   -4.3005 H       1  UNL1        0.2106
     15 O          15.6893   70.7451   -8.3274 O.2     1  UNL1       -0.2464
     16 O          19.4798   70.1452  -10.8791 O.2     1  UNL1       -0.2670
     17 N          17.7498   70.6322   -7.2332 N.ar    1  UNL1       -0.2551
     18 N          17.5778   70.4459   -9.5964 N.ar    1  UNL1       -0.2743
     19 C          16.9142   70.6175   -8.3744 C.ar    1  UNL1        0.3323
     20 C          19.1252   70.4831   -7.3733 C.ar    1  UNL1        0.0869
     21 C          19.7428   70.3209   -8.5454 C.ar    1  UNL1        0.0795
     22 C          18.9425   70.2933   -9.7858 C.ar    1  UNL1        0.2626
     23 H          16.9968   70.4316  -10.4303 H       1  UNL1        0.1734
     24 O          22.1905   72.6332   -3.7804 O.3     1  UNL1       -0.2703
     25 P          23.6763   72.3681   -3.2019 P.3     1  UNL1        0.2208
     26 O          24.6167   73.2551   -4.1739 O.3     1  UNL1       -0.4371
     27 O          24.0576   70.9174   -3.1251 O.2     1  UNL1       -0.5170
     28 O          23.7078   73.1415   -1.7860 O.3     1  UNL1       -0.2858
     29 O          21.8880   72.6681   -0.3495 O.3     1  UNL1       -0.3226
     30 O          23.6810   75.9003    1.5525 O.3     1  UNL1       -0.3794
     31 O          23.4133   75.8520   -1.3513 O.3     1  UNL1       -0.3775
     32 O          21.6741   74.0932    2.1328 O.3     1  UNL1       -0.3792
     33 C          23.5827   74.7043    0.7842 C.3     1  UNL1        0.1718
     34 C          22.7474   74.9466   -0.4775 C.3     1  UNL1        0.1968
     35 C          22.9316   73.6164    1.6426 C.3     1  UNL1        0.1723
     36 C          22.4919   73.6297   -1.2210 C.3     1  UNL1        0.2706
     37 C          22.6876   72.3704    0.7940 C.3     1  UNL1        0.1830
     38 H          24.2146   75.6999    2.3403 H       1  UNL1        0.2105
     39 H          22.8530   75.9668   -2.1373 H       1  UNL1        0.2106
     40 H          21.0371   74.0954    1.3984 H       1  UNL1        0.2106
     41 O          21.7676   71.7059    2.8472 O.co2   1  UNL1       -0.5466
     42 O          21.5223   70.2764    1.0884 O.co2   1  UNL1       -0.5466
     43 C          21.9353   71.3271    1.5572 C.2     1  UNL1        0.0799
@<TRIPOS>UNITY_ATOM_ATTR
41 1
charge -1
@<TRIPOS>BOND
     1     1     4    1
     2     1    24    1
     3     1     2    1
     4     1     3    2
     5    25    28    1
     6    25    24    1
     7    25    26    1
     8    25    27    2
     9     6    11    1
    10     6    12    1
    11    29    36    1
    12    29    37    1
    13     7     9    1
    14     7    13    1
    15     8    10    1
    16     8    14    1
    17     4     5    1
    18    28    36    1
    19    30    33    1
    20    30    38    1
    21    31    34    1
    22    31    39    1
    23    32    35    1
    24    32    40    1
    25    41    43   ar
    26    15    19    2
    27    42    43   ar
    28    16    22    2
    29    17    12    1
    30    17    19   ar
    31    17    20   ar
    32    18    19   ar
    33    18    22   ar
    34    18    23    1
    35     9    10    1
    36     9    11    1
    37    10    12    1
    38    11     5    1
    39    33    34    1
    40    33    35    1
    41    34    36    1
    42    35    37    1
    43    37    43    1
    44    20    21   ar
    45    21    22   ar
@<TRIPOS>MOLECULE
UDP-glaA
 43 45 0 0 0
SMALL
GASTEIGER

@<TRIPOS>ATOM
      1 P          22.1626   71.4878   -2.8611 P.3     1  UNL1        0.2189
      2 O          22.0918   73.0997   -2.7418 O.3     1  UNL1       -0.4371
      3 O          23.5218   70.9356   -3.1766 O.2     1  UNL1       -0.5170
      4 O          20.9933   71.1234   -3.9173 O.3     1  UNL1       -0.3112
      5 C          20.0617   70.1117   -3.5742 C.3     1  UNL1        0.1811
      6 O          18.4288   71.4525   -4.7189 O.3     1  UNL1       -0.3308
      7 O          16.4234   70.3113   -2.8039 O.3     1  UNL1       -0.3794
      8 O          15.9984   68.8385   -5.0592 O.3     1  UNL1       -0.3779
      9 C          17.5601   69.6866   -3.4001 C.3     1  UNL1        0.1713
     10 C          17.2871   69.3808   -4.8577 C.3     1  UNL1        0.1895
     11 C          18.6707   70.7245   -3.4947 C.3     1  UNL1        0.1764
     12 C          17.4537   70.7459   -5.5032 C.3     1  UNL1        0.2383
     13 H          16.6581   70.5233   -1.8844 H       1  UNL1        0.2105
     14 H          15.9363   68.0261   -4.5278 H       1  UNL1        0.2106
     15 O          15.7807   70.3301   -7.7401 O.2     1  UNL1       -0.2464
     16 O          19.3482   70.4256  -10.6560 O.2     1  UNL1       -0.2670
     17 N          17.9184   70.6585   -6.8581 N.ar    1  UNL1       -0.2551
     18 N          17.5583   70.3774   -9.1906 N.ar    1  UNL1       -0.2743
     19 C          16.9958   70.4471   -7.9092 C.ar    1  UNL1        0.3323
     20 C          19.2755   70.7819   -7.1348 C.ar    1  UNL1        0.0869
     21 C          19.7962   70.7136   -8.3620 C.ar    1  UNL1        0.0795
     22 C          18.9010   70.4938   -9.5152 C.ar    1  UNL1        0.2626
     23 H          16.9138   70.2252   -9.9617 H       1  UNL1        0.1734
     24 O          21.5452   70.9927   -1.4508 O.3     1  UNL1       -0.2703
     25 P          22.0692   71.1939    0.0650 P.3     1  UNL1        0.2208
     26 O          23.6690   71.3517   -0.1133 O.3     1  UNL1       -0.4371
     27 O          21.6553   70.1021    1.0098 O.2     1  UNL1       -0.5170
     28 O          21.5575   72.6662    0.4825 O.3     1  UNL1       -0.2858
     29 O          22.5792   74.6054    1.3743 O.3     1  UNL1       -0.3226
     30 O          18.9895   74.4717    3.4661 O.3     1  UNL1       -0.3794
     31 O          20.4952   72.0280    2.9496 O.3     1  UNL1       -0.3775
     32 O          21.0809   76.2540    3.1842 O.3     1  UNL1       -0.3792
     33 C          19.8935   74.3118    2.3764 C.3     1  UNL1        0.1718
     34 C          21.0158   73.3381    2.7514 C.3     1  UNL1        0.1968
     35 C          20.4835   75.6784    2.0177 C.3     1  UNL1        0.1723
     36 C          22.0842   73.2913    1.6521 C.3     1  UNL1        0.2706
     37 C          21.5597   75.5079    0.9478 C.3     1  UNL1        0.1830
     38 H          18.2991   75.0963    3.1854 H       1  UNL1        0.2105
     39 H          21.2412   71.4469    3.1750 H       1  UNL1        0.2106
     40 H          21.9117   75.7844    3.3695 H       1  UNL1        0.2106
     41 O          22.4987   77.4788    1.8066 O.co2   1  UNL1       -0.5466
     42 O          22.5651   77.1967   -0.4546 O.co2   1  UNL1       -0.5466
     43 C          22.2543   76.8007    0.6594 C.2     1  UNL1        0.0799
@<TRIPOS>UNITY_ATOM_ATTR
41 1
charge -1
@<TRIPOS>BOND
     1     1     4    1
     2     1    24    1
     3     1     2    1
     4     1     3    2
     5    25    28    1
     6    25    24    1
     7    25    26    1
     8    25    27    2
     9     6    11    1
    10     6    12    1
    11    29    36    1
    12    29    37    1
    13     7     9    1
    14     7    13    1
    15     8    10    1
    16     8    14    1
    17     4     5    1
    18    28    36    1
    19    30    33    1
    20    30    38    1
    21    31    34    1
    22    31    39    1
    23    32    35    1
    24    32    40    1
    25    41    43   ar
    26    15    19    2
    27    42    43   ar
    28    16    22    2
    29    17    12    1
    30    17    19   ar
    31    17    20   ar
    32    18    19   ar
    33    18    22   ar
    34    18    23    1
    35     9    10    1
    36     9    11    1
    37    10    12    1
    38    11     5    1
    39    33    34    1
    40    33    35    1
    41    34    36    1
    42    35    37    1
    43    37    43    1
    44    20    21   ar
    45    21    22   ar
@<TRIPOS>MOLECULE
UDP-glaA
 43 45 0 0 0
SMALL
GASTEIGER

@<TRIPOS>ATOM
      1 P          23.4354   71.9108   -3.3445 P.3     1  UNL1        0.2189
      2 O          24.1832   72.9427   -4.3412 O.3     1  UNL1       -0.4371
      3 O          24.2783   70.7615   -2.8747 O.2     1  UNL1       -0.5170
      4 O          22.0837   71.5128   -4.1382 O.3     1  UNL1       -0.3112
      5 C          21.5834   72.4089   -5.1160 C.3     1  UNL1        0.1811
      6 O          20.5652   70.4620   -6.0891 O.3     1  UNL1       -0.3308
      7 O          20.7722   71.8959   -8.7145 O.3     1  UNL1       -0.3794
      8 O          18.1549   72.2602   -8.0417 O.3     1  UNL1       -0.3779
      9 C          20.4987   72.4232   -7.4164 C.3     1  UNL1        0.1713
     10 C          19.0862   72.0761   -6.9956 C.3     1  UNL1        0.1895
     11 C          21.3323   71.6440   -6.4077 C.3     1  UNL1        0.1764
     12 C          19.2270   70.6192   -6.5887 C.3     1  UNL1        0.2383
     13 H          21.6976   72.1085   -8.9245 H       1  UNL1        0.2105
     14 H          18.2044   73.1918   -8.3171 H       1  UNL1        0.2106
     15 O          16.5510   69.8499   -7.0606 O.2     1  UNL1       -0.2464
     16 O          15.7519   69.2052   -2.5679 O.2     1  UNL1       -0.2670
     17 N          18.2978   70.2448   -5.5612 N.ar    1  UNL1       -0.2551
     18 N          16.1547   69.5299   -4.8230 N.ar    1  UNL1       -0.2743
     19 C          16.9761   69.8757   -5.9042 C.ar    1  UNL1        0.3323
     20 C          18.6990   70.2458   -4.2299 C.ar    1  UNL1        0.0869
     21 C          17.9041   69.9131   -3.2105 C.ar    1  UNL1        0.0795
     22 C          16.5084   69.5162   -3.4827 C.ar    1  UNL1        0.2626
     23 H          15.1999   69.2616   -5.0459 H       1  UNL1        0.1734
     24 O          22.8934   72.8750   -2.1648 O.3     1  UNL1       -0.2703
     25 P          21.5505   72.8013   -1.2683 P.3     1  UNL1        0.2208
     26 O          21.3438   71.2136   -1.0393 O.3     1  UNL1       -0.4371
     27 O          20.3666   73.4998   -1.8736 O.2     1  UNL1       -0.5170
     28 O          21.9919   73.3683    0.1766 O.3     1  UNL1       -0.2858
     29 O          24.1170   73.3300    1.2167 O.3     1  UNL1       -0.3226
     30 O          21.5477   73.1011    4.4764 O.3     1  UNL1       -0.3794
     31 O          20.9895   71.5960    2.0414 O.3     1  UNL1       -0.3775
     32 O          24.2606   73.4390    4.0813 O.3     1  UNL1       -0.3792
     33 C          22.0178   73.4778    3.1851 C.3     1  UNL1        0.1718
     34 C          22.2316   72.2373    2.3113 C.3     1  UNL1        0.1968
     35 C          23.3353   74.2421    3.3413 C.3     1  UNL1        0.1723
     36 C          22.8981   72.6168    0.9830 C.3     1  UNL1        0.2706
     37 C          23.9276   74.5308    1.9636 C.3     1  UNL1        0.1830
     38 H          21.4290   73.9153    4.9945 H       1  UNL1        0.2105
     39 H          21.1737   70.8246    1.4794 H       1  UNL1        0.2106
     40 H          24.5784   72.7235    3.5049 H       1  UNL1        0.2106
     41 O          26.2156   74.2366    2.3904 O.co2   1  UNL1       -0.5466
     42 O          25.5156   76.3481    1.8918 O.co2   1  UNL1       -0.5466
     43 C          25.2792   75.1620    2.0704 C.2     1  UNL1        0.0799
@<TRIPOS>UNITY_ATOM_ATTR
41 1
charge -1
@<TRIPOS>BOND
     1     1     4    1
     2     1    24    1
     3     1     2    1
     4     1     3    2
     5    25    28    1
     6    25    24    1
     7    25    26    1
     8    25    27    2
     9     6    11    1
    10     6    12    1
    11    29    36    1
    12    29    37    1
    13     7     9    1
    14     7    13    1
    15     8    10    1
    16     8    14    1
    17     4     5    1
    18    28    36    1
    19    30    33    1
    20    30    38    1
    21    31    34    1
    22    31    39    1
    23    32    35    1
    24    32    40    1
    25    41    43   ar
    26    15    19    2
    27    42    43   ar
    28    16    22    2
    29    17    12    1
    30    17    19   ar
    31    17    20   ar
    32    18    19   ar
    33    18    22   ar
    34    18    23    1
    35     9    10    1
    36     9    11    1
    37    10    12    1
    38    11     5    1
    39    33    34    1
    40    33    35    1
    41    34    36    1
    42    35    37    1
    43    37    43    1
    44    20    21   ar
    45    21    22   ar
@<TRIPOS>MOLECULE
UDP-glaA
 43 45 0 0 0
SMALL
GASTEIGER

@<TRIPOS>ATOM
      1 P          21.3391   72.6693   -4.6435 P.3     1  UNL1        0.2189
      2 O          21.1076   74.1352   -3.9993 O.3     1  UNL1       -0.4371
      3 O          22.1751   72.6504   -5.8896 O.2     1  UNL1       -0.5170
      4 O          19.8450   72.0678   -4.7901 O.3     1  UNL1       -0.3112
      5 C          19.2959   71.3450   -3.7014 C.3     1  UNL1        0.1811
      6 O          17.4410   71.7107   -5.1846 O.3     1  UNL1       -0.3308
      7 O          15.8147   70.1027   -3.2454 O.3     1  UNL1       -0.3794
      8 O          16.3385   68.2991   -5.2223 O.3     1  UNL1       -0.3779
      9 C          17.1780   69.9381   -3.6350 C.3     1  UNL1        0.1713
     10 C          17.2588   69.3533   -5.0293 C.3     1  UNL1        0.1895
     11 C          17.7799   71.3228   -3.8348 C.3     1  UNL1        0.1764
     12 C          16.9525   70.5621   -5.8970 C.3     1  UNL1        0.2383
     13 H          15.8127   70.5151   -2.3647 H       1  UNL1        0.2105
     14 H          16.5337   67.6150   -4.5589 H       1  UNL1        0.2106
     15 O          15.6081   70.7372   -8.3743 O.2     1  UNL1       -0.2464
     16 O          19.5355   70.2951  -10.7446 O.2     1  UNL1       -0.2670
     17 N          17.5987   70.4964   -7.1766 N.ar    1  UNL1       -0.2551
     18 N          17.5646   70.5164   -9.5530 N.ar    1  UNL1       -0.2743
     19 C          16.8319   70.5937   -8.3612 C.ar    1  UNL1        0.3323
     20 C          18.9781   70.3369   -7.2491 C.ar    1  UNL1        0.0869
     21 C          19.6621   70.2656   -8.3932 C.ar    1  UNL1        0.0795
     22 C          18.9363   70.3578   -9.6755 C.ar    1  UNL1        0.2626
     23 H          17.0339   70.5834  -10.4173 H       1  UNL1        0.1734
     24 O          21.9515   71.8235   -3.4087 O.3     1  UNL1       -0.2703
     25 P          23.4060   71.8759   -2.7056 P.3     1  UNL1        0.2208
     26 O          24.0103   73.2895   -3.2081 O.3     1  UNL1       -0.4371
     27 O          24.2768   70.6887   -3.0024 O.2     1  UNL1       -0.5170
     28 O          23.0946   72.0990   -1.1380 O.3     1  UNL1       -0.2858
     29 O          24.3988   71.1454    0.5909 O.3     1  UNL1       -0.3226
     30 O          20.7861   71.8606    2.5186 O.3     1  UNL1       -0.3794
     31 O          20.8313   70.8216   -0.2062 O.3     1  UNL1       -0.3775
     32 O          23.3279   71.0668    3.2527 O.3     1  UNL1       -0.3792
     33 C          21.8645   72.0634    1.6096 C.3     1  UNL1        0.1718
     34 C          21.9750   70.8823    0.6394 C.3     1  UNL1        0.1968
     35 C          23.1634   72.2097    2.4069 C.3     1  UNL1        0.1723
     36 C          23.2332   71.0082   -0.2286 C.3     1  UNL1        0.2706
     37 C          24.3489   72.2855    1.4472 C.3     1  UNL1        0.1830
     38 H          20.7554   72.6292    3.1134 H       1  UNL1        0.2105
     39 H          20.9504   70.0669   -0.8071 H       1  UNL1        0.2106
     40 H          23.5842   70.3085    2.7009 H       1  UNL1        0.2106
     41 O          26.1739   71.0512    2.2532 O.co2   1  UNL1       -0.5466
     42 O          26.1766   73.2942    2.6604 O.co2   1  UNL1       -0.5466
     43 C          25.6500   72.2988    2.1847 C.2     1  UNL1        0.0799
@<TRIPOS>UNITY_ATOM_ATTR
41 1
charge -1
@<TRIPOS>BOND
     1     1     4    1
     2     1    24    1
     3     1     2    1
     4     1     3    2
     5    25    28    1
     6    25    24    1
     7    25    26    1
     8    25    27    2
     9     6    11    1
    10     6    12    1
    11    29    36    1
    12    29    37    1
    13     7     9    1
    14     7    13    1
    15     8    10    1
    16     8    14    1
    17     4     5    1
    18    28    36    1
    19    30    33    1
    20    30    38    1
    21    31    34    1
    22    31    39    1
    23    32    35    1
    24    32    40    1
    25    41    43   ar
    26    15    19    2
    27    42    43   ar
    28    16    22    2
    29    17    12    1
    30    17    19   ar
    31    17    20   ar
    32    18    19   ar
    33    18    22   ar
    34    18    23    1
    35     9    10    1
    36     9    11    1
    37    10    12    1
    38    11     5    1
    39    33    34    1
    40    33    35    1
    41    34    36    1
    42    35    37    1
    43    37    43    1
    44    20    21   ar
    45    21    22   ar
@<TRIPOS>MOLECULE
UDP-glaA
 43 45 0 0 0
SMALL
GASTEIGER

@<TRIPOS>ATOM
      1 P          21.4600   74.3479   -2.0392 P.3     1  UNL1        0.2189
      2 O          21.9308   74.1452   -3.5736 O.3     1  UNL1       -0.4371
      3 O          20.7338   75.6322   -1.7642 O.2     1  UNL1       -0.5170
      4 O          22.8101   74.1065   -1.1822 O.3     1  UNL1       -0.3112
      5 C          22.7372   74.1790    0.2316 C.3     1  UNL1        0.1811
      6 O          23.5180   72.0442    1.0108 O.3     1  UNL1       -0.3308
      7 O          20.8162   71.7259    2.2718 O.3     1  UNL1       -0.3794
      8 O          22.3768   72.4585    4.3845 O.3     1  UNL1       -0.3779
      9 C          21.6094   72.9030    2.1208 C.3     1  UNL1        0.1713
     10 C          22.7679   72.8843    3.0956 C.3     1  UNL1        0.1895
     11 C          22.3220   72.8202    0.7773 C.3     1  UNL1        0.1764
     12 C          23.7277   71.9151    2.4267 C.3     1  UNL1        0.2383
     13 H          20.1116   71.7634    1.6026 H       1  UNL1        0.2105
     14 H          21.6848   73.0669    4.6962 H       1  UNL1        0.2106
     15 O          24.6457   74.3854    3.4416 O.2     1  UNL1       -0.2464
     16 O          29.0183   72.9326    3.5297 O.2     1  UNL1       -0.2670
     17 N          25.1003   72.2096    2.7244 N.ar    1  UNL1       -0.2551
     18 N          26.8225   73.6605    3.4843 N.ar    1  UNL1       -0.2743
     19 C          25.4564   73.4818    3.2298 C.ar    1  UNL1        0.3323
     20 C          26.0777   71.2430    2.5151 C.ar    1  UNL1        0.0869
     21 C          27.3761   71.4287    2.7631 C.ar    1  UNL1        0.0795
     22 C          27.8316   72.7297    3.2918 C.ar    1  UNL1        0.2626
     23 H          27.1017   74.5678    3.8476 H       1  UNL1        0.1734
     24 O          20.5990   73.0111   -1.7447 O.3     1  UNL1       -0.2703
     25 P          20.7558   71.5037   -2.3068 P.3     1  UNL1        0.2208
     26 O          19.8959   70.6246   -1.2562 O.3     1  UNL1       -0.4371
     27 O          22.1789   71.0533   -2.4733 O.2     1  UNL1       -0.5170
     28 O          19.8862   71.4815   -3.6659 O.3     1  UNL1       -0.2858
     29 O          19.0085   69.7631   -5.0355 O.3     1  UNL1       -0.3226
     30 O          20.2636   72.5594   -7.8435 O.3     1  UNL1       -0.3794
     31 O          21.8931   71.9849   -5.4939 O.3     1  UNL1       -0.3775
     32 O          18.8139   70.2082   -7.8644 O.3     1  UNL1       -0.3792
     33 C          19.7391   72.0584   -6.6171 C.3     1  UNL1        0.1718
     34 C          20.7831   71.1930   -5.9032 C.3     1  UNL1        0.1968
     35 C          18.4871   71.2292   -6.9158 C.3     1  UNL1        0.1723
     36 C          20.1734   70.5113   -4.6720 C.3     1  UNL1        0.2706
     37 C          17.9918   70.5668   -5.6321 C.3     1  UNL1        0.1830
     38 H          19.5699   73.0978   -8.2611 H       1  UNL1        0.2105
     39 H          22.5209   71.3978   -5.0400 H       1  UNL1        0.2106
     40 H          19.3345   69.5224   -7.4130 H       1  UNL1        0.2106
     41 O          16.1779   70.0206   -7.0160 O.co2   1  UNL1       -0.5466
     42 O          16.5495   68.6764   -5.2127 O.co2   1  UNL1       -0.5466
     43 C          16.8464   69.6430   -5.8997 C.2     1  UNL1        0.0799
@<TRIPOS>UNITY_ATOM_ATTR
41 1
charge -1
@<TRIPOS>BOND
     1     1     4    1
     2     1    24    1
     3     1     2    1
     4     1     3    2
     5    25    28    1
     6    25    24    1
     7    25    26    1
     8    25    27    2
     9     6    11    1
    10     6    12    1
    11    29    36    1
    12    29    37    1
    13     7     9    1
    14     7    13    1
    15     8    10    1
    16     8    14    1
    17     4     5    1
    18    28    36    1
    19    30    33    1
    20    30    38    1
    21    31    34    1
    22    31    39    1
    23    32    35    1
    24    32    40    1
    25    41    43   ar
    26    15    19    2
    27    42    43   ar
    28    16    22    2
    29    17    12    1
    30    17    19   ar
    31    17    20   ar
    32    18    19   ar
    33    18    22   ar
    34    18    23    1
    35     9    10    1
    36     9    11    1
    37    10    12    1
    38    11     5    1
    39    33    34    1
    40    33    35    1
    41    34    36    1
    42    35    37    1
    43    37    43    1
    44    20    21   ar
    45    21    22   ar
@<TRIPOS>MOLECULE
UDP-glaA
 43 45 0 0 0
SMALL
GASTEIGER

@<TRIPOS>ATOM
      1 P          22.0043   72.9877   -5.0797 P.3     1  UNL1        0.2189
      2 O          22.1040   74.6023   -5.1020 O.3     1  UNL1       -0.4371
      3 O          22.8686   72.2862   -6.0862 O.2     1  UNL1       -0.5170
      4 O          20.4178   72.6936   -5.1890 O.3     1  UNL1       -0.3112
      5 C          19.6883   72.4601   -3.9963 C.3     1  UNL1        0.1811
      6 O          18.0327   73.0542   -5.6334 O.3     1  UNL1       -0.3308
      7 O          15.9937   72.4163   -3.5294 O.3     1  UNL1       -0.3794
      8 O          15.9536   70.1832   -5.0939 O.3     1  UNL1       -0.3779
      9 C          17.2449   71.7830   -3.7961 C.3     1  UNL1        0.1713
     10 C          17.1484   70.9355   -5.0471 C.3     1  UNL1        0.1895
     11 C          18.2363   72.8600   -4.2164 C.3     1  UNL1        0.1764
     12 C          17.2222   71.9832   -6.1447 C.3     1  UNL1        0.2383
     13 H          16.1143   72.9773   -2.7444 H       1  UNL1        0.2105
     14 H          15.9323   69.6181   -4.3024 H       1  UNL1        0.2106
     15 O          15.8007   70.6867   -8.2121 O.2     1  UNL1       -0.2464
     16 O          19.6257   70.0795  -10.7100 O.2     1  UNL1       -0.2670
     17 N          17.8211   71.4769   -7.3465 N.ar    1  UNL1       -0.2551
     18 N          17.7064   70.3847   -9.4543 N.ar    1  UNL1       -0.2743
     19 C          17.0184   70.8410   -8.3223 C.ar    1  UNL1        0.3323
     20 C          19.1900   71.6123   -7.5491 C.ar    1  UNL1        0.0869
     21 C          19.8311   71.1724   -8.6341 C.ar    1  UNL1        0.0795
     22 C          19.0661   70.4960   -9.7004 C.ar    1  UNL1        0.2626
     23 H          17.1495   69.9238  -10.1689 H       1  UNL1        0.1734
     24 O          22.3354   72.6255   -3.5388 O.3     1  UNL1       -0.2703
     25 P          22.5076   71.1991   -2.7983 P.3     1  UNL1        0.2208
     26 O          24.1109   70.9875   -2.7688 O.3     1  UNL1       -0.4371
     27 O          21.7458   70.0755   -3.4409 O.2     1  UNL1       -0.5170
     28 O          22.1050   71.4846   -1.2620 O.3     1  UNL1       -0.2858
     29 O          23.8737   72.5889   -0.1433 O.3     1  UNL1       -0.3226
     30 O          21.1390   71.9899    2.9294 O.3     1  UNL1       -0.3794
     31 O          21.6236   69.9038    0.9498 O.3     1  UNL1       -0.3775
     32 O          23.5107   73.3660    2.5958 O.3     1  UNL1       -0.3792
     33 C          21.6131   72.2428    1.6097 C.3     1  UNL1        0.1718
     34 C          22.4428   71.0579    1.1038 C.3     1  UNL1        0.1968
     35 C          22.4685   73.5126    1.6257 C.3     1  UNL1        0.1723
     36 C          23.0987   71.3895   -0.2424 C.3     1  UNL1        0.2706
     37 C          23.1019   73.7219    0.2519 C.3     1  UNL1        0.1830
     38 H          20.6226   72.7650    3.2092 H       1  UNL1        0.2105
     39 H          22.1886   69.1849    0.6198 H       1  UNL1        0.2106
     40 H          24.1760   72.7506    2.2439 H       1  UNL1        0.2106
     41 O          24.7551   74.9246   -0.8989 O.co2   1  UNL1       -0.5466
     42 O          24.1739   75.6800    1.1720 O.co2   1  UNL1       -0.5466
     43 C          24.0494   74.8791    0.2568 C.2     1  UNL1        0.0799
@<TRIPOS>UNITY_ATOM_ATTR
41 1
charge -1
@<TRIPOS>BOND
     1     1     4    1
     2     1    24    1
     3     1     2    1
     4     1     3    2
     5    25    28    1
     6    25    24    1
     7    25    26    1
     8    25    27    2
     9     6    11    1
    10     6    12    1
    11    29    36    1
    12    29    37    1
    13     7     9    1
    14     7    13    1
    15     8    10    1
    16     8    14    1
    17     4     5    1
    18    28    36    1
    19    30    33    1
    20    30    38    1
    21    31    34    1
    22    31    39    1
    23    32    35    1
    24    32    40    1
    25    41    43   ar
    26    15    19    2
    27    42    43   ar
    28    16    22    2
    29    17    12    1
    30    17    19   ar
    31    17    20   ar
    32    18    19   ar
    33    18    22   ar
    34    18    23    1
    35     9    10    1
    36     9    11    1
    37    10    12    1
    38    11     5    1
    39    33    34    1
    40    33    35    1
    41    34    36    1
    42    35    37    1
    43    37    43    1
    44    20    21   ar
    45    21    22   ar
@<TRIPOS>MOLECULE
UDP-glaA
 43 45 0 0 0
SMALL
GASTEIGER

@<TRIPOS>ATOM
      1 P          22.0919   71.3172   -3.0616 P.3     1  UNL1        0.2189
      2 O          21.7513   72.8977   -3.0028 O.3     1  UNL1       -0.4371
      3 O          23.4907   70.9868   -3.4934 O.2     1  UNL1       -0.5170
      4 O          20.9096   70.6975   -3.9746 O.3     1  UNL1       -0.3112
      5 C          20.0568   69.7185   -3.4058 C.3     1  UNL1        0.1811
      6 O          18.4106   71.0943   -4.4881 O.3     1  UNL1       -0.3308
      7 O          16.3960   69.7480   -2.7217 O.3     1  UNL1       -0.3794
      8 O          16.0746   68.4426   -5.0941 O.3     1  UNL1       -0.3779
      9 C          17.5666   69.2060   -3.3329 C.3     1  UNL1        0.1713
     10 C          17.3398   69.0062   -4.8166 C.3     1  UNL1        0.1895
     11 C          18.6453   70.2811   -3.3173 C.3     1  UNL1        0.1764
     12 C          17.4784   70.4217   -5.3506 C.3     1  UNL1        0.2383
     13 H          16.6010   69.8950   -1.7826 H       1  UNL1        0.2105
     14 H          16.0255   67.5899   -4.6286 H       1  UNL1        0.2106
     15 O          15.8709   70.1652   -7.6583 O.2     1  UNL1       -0.2464
     16 O          19.5095   70.5576  -10.4593 O.2     1  UNL1       -0.2670
     17 N          17.9791   70.4538   -6.6951 N.ar    1  UNL1       -0.2551
     18 N          17.6839   70.3602   -9.0516 N.ar    1  UNL1       -0.2743
     19 C          17.0876   70.3150   -7.7845 C.ar    1  UNL1        0.3323
     20 C          19.3404   70.6210   -6.9240 C.ar    1  UNL1        0.0869
     21 C          19.8935   70.6625   -8.1382 C.ar    1  UNL1        0.0795
     22 C          19.0322   70.5243   -9.3293 C.ar    1  UNL1        0.2626
     23 H          17.0622   70.2620   -9.8497 H       1  UNL1        0.1734
     24 O          21.7078   70.8082   -1.5755 O.3     1  UNL1       -0.2703
     25 P          22.3045   71.2130   -0.1289 P.3     1  UNL1        0.2208
     26 O          23.9044   71.1679   -0.3616 O.3     1  UNL1       -0.4371
     27 O          21.8178   70.3516    1.0011 O.2     1  UNL1       -0.5170
     28 O          21.9591   72.7811    0.0316 O.3     1  UNL1       -0.2858
     29 O          21.6802   74.1787    1.9206 O.3     1  UNL1       -0.3226
     30 O          23.7220   70.9355    3.5306 O.3     1  UNL1       -0.3794
     31 O          24.4547   71.9974    0.9150 O.3     1  UNL1       -0.3775
     32 O          22.4633   73.1949    4.5007 O.3     1  UNL1       -0.3792
     33 C          22.8241   71.6461    2.6825 C.3     1  UNL1        0.1718
     34 C          23.5881   72.6628    1.8276 C.3     1  UNL1        0.1968
     35 C          21.7875   72.3650    3.5503 C.3     1  UNL1        0.1723
     36 C          22.6158   73.5491    1.0391 C.3     1  UNL1        0.2706
     37 C          20.9034   73.2457    2.6700 C.3     1  UNL1        0.1830
     38 H          23.1960   70.3067    4.0535 H       1  UNL1        0.2105
     39 H          24.9082   72.6790    0.3909 H       1  UNL1        0.2106
     40 H          22.8211   73.9696    4.0351 H       1  UNL1        0.2106
     41 O          20.6368   74.8111    4.3969 O.co2   1  UNL1       -0.5466
     42 O          18.7436   74.0731    3.3633 O.co2   1  UNL1       -0.5466
     43 C          19.9595   74.0666    3.4899 C.2     1  UNL1        0.0799
@<TRIPOS>UNITY_ATOM_ATTR
41 1
charge -1
@<TRIPOS>BOND
     1     1     4    1
     2     1    24    1
     3     1     2    1
     4     1     3    2
     5    25    28    1
     6    25    24    1
     7    25    26    1
     8    25    27    2
     9     6    11    1
    10     6    12    1
    11    29    36    1
    12    29    37    1
    13     7     9    1
    14     7    13    1
    15     8    10    1
    16     8    14    1
    17     4     5    1
    18    28    36    1
    19    30    33    1
    20    30    38    1
    21    31    34    1
    22    31    39    1
    23    32    35    1
    24    32    40    1
    25    41    43   ar
    26    15    19    2
    27    42    43   ar
    28    16    22    2
    29    17    12    1
    30    17    19   ar
    31    17    20   ar
    32    18    19   ar
    33    18    22   ar
    34    18    23    1
    35     9    10    1
    36     9    11    1
    37    10    12    1
    38    11     5    1
    39    33    34    1
    40    33    35    1
    41    34    36    1
    42    35    37    1
    43    37    43    1
    44    20    21   ar
    45    21    22   ar
@<TRIPOS>MOLECULE
UDP-glaA
 43 45 0 0 0
SMALL
GASTEIGER

@<TRIPOS>ATOM
      1 P          23.6241   72.2914   -3.2774 P.3     1  UNL1        0.2189
      2 O          24.1704   70.7915   -3.0145 O.3     1  UNL1       -0.4371
      3 O          24.5177   73.1515   -4.1222 O.2     1  UNL1       -0.5170
      4 O          23.3025   72.8543   -1.7958 O.3     1  UNL1       -0.3112
      5 C          22.3973   73.9371   -1.6642 C.3     1  UNL1        0.1811
      6 O          21.8810   72.4767    0.1728 O.3     1  UNL1       -0.3308
      7 O          19.9219   74.5725    1.0449 O.3     1  UNL1       -0.3794
      8 O          22.0431   75.0145    2.7005 O.3     1  UNL1       -0.3779
      9 C          21.2035   74.7314    0.4365 C.3     1  UNL1        0.1713
     10 C          22.3003   74.4360    1.4376 C.3     1  UNL1        0.1895
     11 C          21.3852   73.6083   -0.5760 C.3     1  UNL1        0.1764
     12 C          22.2904   72.9174    1.4780 C.3     1  UNL1        0.2383
     13 H          19.2530   74.7332    0.3577 H       1  UNL1        0.2105
     14 H          21.9562   75.9745    2.5704 H       1  UNL1        0.2106
     15 O          22.9934   70.2067    1.1130 O.2     1  UNL1       -0.2464
     16 O          27.2809   70.9228    2.6437 O.2     1  UNL1       -0.2670
     17 N          23.5832   72.3684    1.7723 N.ar    1  UNL1       -0.2551
     18 N          25.1278   70.5649    1.8760 N.ar    1  UNL1       -0.2743
     19 C          23.8332   70.9934    1.5540 C.ar    1  UNL1        0.3323
     20 C          24.5877   73.1898    2.2719 C.ar    1  UNL1        0.0869
     21 C          25.8171   72.7663    2.5735 C.ar    1  UNL1        0.0795
     22 C          26.1599   71.3440    2.3756 C.ar    1  UNL1        0.2626
     23 H          25.3300   69.5799    1.7277 H       1  UNL1        0.1734
     24 O          22.1520   72.0374   -3.8968 O.3     1  UNL1       -0.2703
     25 P          21.5048   72.4823   -5.3095 P.3     1  UNL1        0.2208
     26 O          22.6115   72.0091   -6.3900 O.3     1  UNL1       -0.4371
     27 O          21.1425   73.9377   -5.3899 O.2     1  UNL1       -0.5170
     28 O          20.2643   71.4734   -5.5269 O.3     1  UNL1       -0.2858
     29 O          18.1644   71.8670   -6.5441 O.3     1  UNL1       -0.3226
     30 O          17.2175   69.0240   -3.6631 O.3     1  UNL1       -0.3794
     31 O          19.0715   71.1911   -3.0530 O.3     1  UNL1       -0.3775
     32 O          15.9288   70.2345   -5.7853 O.3     1  UNL1       -0.3792
     33 C          17.9920   69.7062   -4.6455 C.3     1  UNL1        0.1718
     34 C          18.2478   71.1540   -4.2136 C.3     1  UNL1        0.1968
     35 C          17.2355   69.6824   -5.9765 C.3     1  UNL1        0.1723
     36 C          18.9305   71.9436   -5.3374 C.3     1  UNL1        0.2706
     37 C          17.9810   70.5294   -7.0056 C.3     1  UNL1        0.1830
     38 H          17.0784   68.1148   -3.9786 H       1  UNL1        0.2105
     39 H          19.2134   72.1250   -2.8236 H       1  UNL1        0.2106
     40 H          16.0120   71.1980   -5.6860 H       1  UNL1        0.2106
     41 O          18.0373   70.9415   -9.3145 O.co2   1  UNL1       -0.5466
     42 O          16.0044   70.4810   -8.3914 O.co2   1  UNL1       -0.5466
     43 C          17.2115   70.6409   -8.2833 C.2     1  UNL1        0.0799
@<TRIPOS>UNITY_ATOM_ATTR
41 1
charge -1
@<TRIPOS>BOND
     1     1     4    1
     2     1    24    1
     3     1     2    1
     4     1     3    2
     5    25    28    1
     6    25    24    1
     7    25    26    1
     8    25    27    2
     9     6    11    1
    10     6    12    1
    11    29    36    1
    12    29    37    1
    13     7     9    1
    14     7    13    1
    15     8    10    1
    16     8    14    1
    17     4     5    1
    18    28    36    1
    19    30    33    1
    20    30    38    1
    21    31    34    1
    22    31    39    1
    23    32    35    1
    24    32    40    1
    25    41    43   ar
    26    15    19    2
    27    42    43   ar
    28    16    22    2
    29    17    12    1
    30    17    19   ar
    31    17    20   ar
    32    18    19   ar
    33    18    22   ar
    34    18    23    1
    35     9    10    1
    36     9    11    1
    37    10    12    1
    38    11     5    1
    39    33    34    1
    40    33    35    1
    41    34    36    1
    42    35    37    1
    43    37    43    1
    44    20    21   ar
    45    21    22   ar
@<TRIPOS>MOLECULE
UDP-glaA
 43 45 0 0 0
SMALL
GASTEIGER

@<TRIPOS>ATOM
      1 P          22.9718   71.6605   -2.1009 P.3     1  UNL1        0.2189
      2 O          24.1259   70.9444   -2.9799 O.3     1  UNL1       -0.4371
      3 O          23.1458   73.1390   -1.9118 O.2     1  UNL1       -0.5170
      4 O          22.9122   70.7806   -0.7452 O.3     1  UNL1       -0.3112
      5 C          23.6416   71.2276    0.3851 C.3     1  UNL1        0.1811
      6 O          23.5332   71.4420    2.7760 O.3     1  UNL1       -0.3308
      7 O          20.6077   71.9868    2.4072 O.3     1  UNL1       -0.3794
      8 O          21.6370   74.4851    2.7739 O.3     1  UNL1       -0.3779
      9 C          21.7083   72.3675    1.5818 C.3     1  UNL1        0.1713
     10 C          22.4845   73.4952    2.2286 C.3     1  UNL1        0.1895
     11 C          22.7229   71.2317    1.5985 C.3     1  UNL1        0.1764
     12 C          23.2829   72.7599    3.2916 C.3     1  UNL1        0.2383
     13 H          20.1648   71.2381    1.9726 H       1  UNL1        0.2105
     14 H          21.0849   74.8286    2.0504 H       1  UNL1        0.2106
     15 O          23.6288   74.8407    5.1694 O.2     1  UNL1       -0.2464
     16 O          28.1432   75.1315    4.2895 O.2     1  UNL1       -0.2670
     17 N          24.5373   73.3971    3.5737 N.ar    1  UNL1       -0.2551
     18 N          25.8764   74.9845    4.7296 N.ar    1  UNL1       -0.2743
     19 C          24.6032   74.4332    4.5345 C.ar    1  UNL1        0.3323
     20 C          25.6860   72.9946    2.9014 C.ar    1  UNL1        0.0869
     21 C          26.8927   73.5299    3.0990 C.ar    1  UNL1        0.0795
     22 C          27.0476   74.6179    4.0848 C.ar    1  UNL1        0.2626
     23 H          25.9475   75.7313    5.4154 H       1  UNL1        0.1734
     24 O          21.6142   71.2350   -2.8698 O.3     1  UNL1       -0.2703
     25 P          20.0669   71.3076   -2.4080 P.3     1  UNL1        0.2208
     26 O          19.8035   72.8947   -2.2411 O.3     1  UNL1       -0.4371
     27 O          19.7502   70.4947   -1.1855 O.2     1  UNL1       -0.5170
     28 O          19.2281   70.8903   -3.7218 O.3     1  UNL1       -0.2858
     29 O          19.8828   72.6037   -5.2168 O.3     1  UNL1       -0.3226
     30 O          17.9193   69.9484   -7.7414 O.3     1  UNL1       -0.3794
     31 O          16.8563   70.5322   -5.0890 O.3     1  UNL1       -0.3775
     32 O          19.4506   72.2293   -8.0296 O.3     1  UNL1       -0.3792
     33 C          18.7168   70.3900   -6.6462 C.3     1  UNL1        0.1718
     34 C          17.8937   71.2827   -5.7114 C.3     1  UNL1        0.1968
     35 C          19.9180   71.1681   -7.1903 C.3     1  UNL1        0.1723
     36 C          18.7845   71.9006   -4.6266 C.3     1  UNL1        0.2706
     37 C          20.7074   71.7705   -6.0301 C.3     1  UNL1        0.1830
     38 H          18.4802   69.3902   -8.3065 H       1  UNL1        0.2105
     39 H          16.3700   71.1349   -4.5016 H       1  UNL1        0.2106
     40 H          19.0734   72.9257   -7.4657 H       1  UNL1        0.2106
     41 O          21.3729   73.9116   -6.7206 O.co2   1  UNL1       -0.5466
     42 O          22.9669   72.2818   -6.7109 O.co2   1  UNL1       -0.5466
     43 C          21.8161   72.6472   -6.5194 C.2     1  UNL1        0.0799
@<TRIPOS>UNITY_ATOM_ATTR
41 1
charge -1
@<TRIPOS>BOND
     1     1     4    1
     2     1    24    1
     3     1     2    1
     4     1     3    2
     5    25    28    1
     6    25    24    1
     7    25    26    1
     8    25    27    2
     9     6    11    1
    10     6    12    1
    11    29    36    1
    12    29    37    1
    13     7     9    1
    14     7    13    1
    15     8    10    1
    16     8    14    1
    17     4     5    1
    18    28    36    1
    19    30    33    1
    20    30    38    1
    21    31    34    1
    22    31    39    1
    23    32    35    1
    24    32    40    1
    25    41    43   ar
    26    15    19    2
    27    42    43   ar
    28    16    22    2
    29    17    12    1
    30    17    19   ar
    31    17    20   ar
    32    18    19   ar
    33    18    22   ar
    34    18    23    1
    35     9    10    1
    36     9    11    1
    37    10    12    1
    38    11     5    1
    39    33    34    1
    40    33    35    1
    41    34    36    1
    42    35    37    1
    43    37    43    1
    44    20    21   ar
    45    21    22   ar
@<TRIPOS>MOLECULE
UDP-glaA
 43 45 0 0 0
SMALL
GASTEIGER

@<TRIPOS>ATOM
      1 P          21.9610   71.6446   -2.0650 P.3     1  UNL1        0.2189
      2 O          21.3939   72.9950   -2.7520 O.3     1  UNL1       -0.4371
      3 O          23.1478   71.0351   -2.7522 O.2     1  UNL1       -0.5170
      4 O          20.6580   70.6951   -1.9381 O.3     1  UNL1       -0.3112
      5 C          19.9824   70.3101   -3.1232 C.3     1  UNL1        0.1811
      6 O          18.3211   71.5819   -4.3051 O.3     1  UNL1       -0.3308
      7 O          16.3161   70.3178   -2.4685 O.3     1  UNL1       -0.3794
      8 O          16.0373   68.8543   -4.7524 O.3     1  UNL1       -0.3779
      9 C          17.5011   69.7583   -3.0346 C.3     1  UNL1        0.1713
     10 C          17.2901   69.4577   -4.5035 C.3     1  UNL1        0.1895
     11 C          18.5605   70.8515   -3.0819 C.3     1  UNL1        0.1764
     12 C          17.4081   70.8375   -5.1282 C.3     1  UNL1        0.2383
     13 H          16.5107   70.5297   -1.5397 H       1  UNL1        0.2105
     14 H          15.9995   68.0331   -4.2323 H       1  UNL1        0.2106
     15 O          20.1393   70.5460   -5.7849 O.2     1  UNL1       -0.2464
     16 O          19.2540   70.6725  -10.3059 O.2     1  UNL1       -0.2670
     17 N          17.9193   70.7906   -6.4684 N.ar    1  UNL1       -0.2551
     18 N          19.6967   70.6097   -8.0358 N.ar    1  UNL1       -0.2743
     19 C          19.3084   70.6425   -6.6899 C.ar    1  UNL1        0.3323
     20 C          17.0472   70.8911   -7.5467 C.ar    1  UNL1        0.0869
     21 C          17.4330   70.8576   -8.8242 C.ar    1  UNL1        0.0795
     22 C          18.8667   70.7062   -9.1419 C.ar    1  UNL1        0.2626
     23 H          20.6909   70.5045   -8.2189 H       1  UNL1        0.1734
     24 O          22.2285   72.1003   -0.5366 O.3     1  UNL1       -0.2703
     25 P          22.6105   71.2374    0.7757 P.3     1  UNL1        0.2208
     26 O          24.1568   70.8379    0.5198 O.3     1  UNL1       -0.4371
     27 O          21.7021   70.0688    1.0303 O.2     1  UNL1       -0.5170
     28 O          22.6604   72.3166    1.9744 O.3     1  UNL1       -0.2858
     29 O          22.2644   72.5513    4.2955 O.3     1  UNL1       -0.3226
     30 O          19.8786   75.5564    2.6965 O.3     1  UNL1       -0.3794
     31 O          20.0317   72.9437    1.4095 O.3     1  UNL1       -0.3775
     32 O          20.6917   74.7690    5.2161 O.3     1  UNL1       -0.3792
     33 C          20.9906   74.6743    2.8210 C.3     1  UNL1        0.1718
     34 C          20.5307   73.2163    2.7147 C.3     1  UNL1        0.1968
     35 C          21.6636   74.9139    4.1753 C.3     1  UNL1        0.1723
     36 C          21.6891   72.2579    3.0180 C.3     1  UNL1        0.2706
     37 C          22.7694   73.8825    4.3884 C.3     1  UNL1        0.1830
     38 H          20.2154   76.4655    2.7721 H       1  UNL1        0.2105
     39 H          19.7625   72.0100    1.3874 H       1  UNL1        0.2106
     40 H          20.4912   73.8236    5.3220 H       1  UNL1        0.2106
     41 O          24.5314   74.6906    5.7099 O.co2   1  UNL1       -0.5466
     42 O          22.8808   73.5338    6.7750 O.co2   1  UNL1       -0.5466
     43 C          23.3685   73.9968    5.7541 C.2     1  UNL1        0.0799
@<TRIPOS>UNITY_ATOM_ATTR
41 1
charge -1
@<TRIPOS>BOND
     1     1     4    1
     2     1    24    1
     3     1     2    1
     4     1     3    2
     5    25    28    1
     6    25    24    1
     7    25    26    1
     8    25    27    2
     9     6    11    1
    10     6    12    1
    11    29    36    1
    12    29    37    1
    13     7     9    1
    14     7    13    1
    15     8    10    1
    16     8    14    1
    17     4     5    1
    18    28    36    1
    19    30    33    1
    20    30    38    1
    21    31    34    1
    22    31    39    1
    23    32    35    1
    24    32    40    1
    25    41    43   ar
    26    15    19    2
    27    42    43   ar
    28    16    22    2
    29    17    12    1
    30    17    19   ar
    31    17    20   ar
    32    18    19   ar
    33    18    22   ar
    34    18    23    1
    35     9    10    1
    36     9    11    1
    37    10    12    1
    38    11     5    1
    39    33    34    1
    40    33    35    1
    41    34    36    1
    42    35    37    1
    43    37    43    1
    44    20    21   ar
    45    21    22   ar
@<TRIPOS>MOLECULE
UDP-glaA
 43 45 0 0 0
SMALL
GASTEIGER

@<TRIPOS>ATOM
      1 P          23.2703   72.9337   -3.9800 P.3     1  UNL1        0.2189
      2 O          24.3430   71.7518   -3.7160 O.3     1  UNL1       -0.4371
      3 O          23.8444   74.1904   -4.5658 O.2     1  UNL1       -0.5170
      4 O          22.5170   73.1010   -2.5586 O.3     1  UNL1       -0.3112
      5 C          21.9258   74.3514   -2.2483 C.3     1  UNL1        0.1811
      6 O          20.9803   72.9188   -0.5667 O.3     1  UNL1       -0.3308
      7 O          19.1809   75.2186    0.1146 O.3     1  UNL1       -0.3794
      8 O          21.0797   75.3494    2.0673 O.3     1  UNL1       -0.3779
      9 C          20.5462   75.2326   -0.3018 C.3     1  UNL1        0.1713
     10 C          21.4447   74.7768    0.8286 C.3     1  UNL1        0.1895
     11 C          20.7360   74.1226   -1.3271 C.3     1  UNL1        0.1764
     12 C          21.2476   73.2707    0.8008 C.3     1  UNL1        0.2383
     13 H          18.6416   75.4792   -0.6514 H       1  UNL1        0.2105
     14 H          21.1277   76.3159    1.9684 H       1  UNL1        0.2106
     15 O          21.3601   70.4726    1.1658 O.2     1  UNL1       -0.2464
     16 O          25.7608   70.6427    2.5235 O.2     1  UNL1       -0.2670
     17 N          22.4098   72.5575    1.2481 N.ar    1  UNL1       -0.2551
     18 N          23.5512   70.5592    1.8421 N.ar    1  UNL1       -0.2743
     19 C          22.3613   71.1519    1.3996 C.ar    1  UNL1        0.3323
     20 C          23.5815   73.2501    1.5320 C.ar    1  UNL1        0.0869
     21 C          24.7080   72.6705    1.9526 C.ar    1  UNL1        0.0795
     22 C          24.7412   71.2061    2.1375 C.ar    1  UNL1        0.2626
     23 H          23.5395   69.5496    1.9588 H       1  UNL1        0.1734
     24 O          22.1537   72.2108   -4.8997 O.3     1  UNL1       -0.2703
     25 P          21.0304   72.8274   -5.8849 P.3     1  UNL1        0.2208
     26 O          21.8837   73.2839   -7.1809 O.3     1  UNL1       -0.4371
     27 O          20.2046   73.9207   -5.2697 O.2     1  UNL1       -0.5170
     28 O          20.1798   71.5506   -6.3850 O.3     1  UNL1       -0.2858
     29 O          18.0079   70.7232   -6.8296 O.3     1  UNL1       -0.3226
     30 O          17.1964   74.4141   -5.0983 O.3     1  UNL1       -0.3794
     31 O          19.3840   74.1207   -7.0046 O.3     1  UNL1       -0.3775
     32 O          15.7395   72.1988   -5.8726 O.3     1  UNL1       -0.3792
     33 C          17.8786   73.1869   -5.3408 C.3     1  UNL1        0.1718
     34 C          18.3827   73.1324   -6.7869 C.3     1  UNL1        0.1968
     35 C          16.9167   72.0251   -5.0771 C.3     1  UNL1        0.1723
     36 C          18.9654   71.7503   -7.1072 C.3     1  UNL1        0.2706
     37 C          17.5837   70.7080   -5.4674 C.3     1  UNL1        0.1830
     38 H          16.8935   74.4038   -4.1743 H       1  UNL1        0.2105
     39 H          19.6784   74.0417   -7.9276 H       1  UNL1        0.2106
     40 H          15.9589   71.9949   -6.7976 H       1  UNL1        0.2106
     41 O          16.0557   69.2901   -6.5438 O.co2   1  UNL1       -0.5466
     42 O          16.4100   68.9375   -4.3195 O.co2   1  UNL1       -0.5466
     43 C          16.6350   69.5579   -5.3486 C.2     1  UNL1        0.0799
@<TRIPOS>UNITY_ATOM_ATTR
41 1
charge -1
@<TRIPOS>BOND
     1     1     4    1
     2     1    24    1
     3     1     2    1
     4     1     3    2
     5    25    28    1
     6    25    24    1
     7    25    26    1
     8    25    27    2
     9     6    11    1
    10     6    12    1
    11    29    36    1
    12    29    37    1
    13     7     9    1
    14     7    13    1
    15     8    10    1
    16     8    14    1
    17     4     5    1
    18    28    36    1
    19    30    33    1
    20    30    38    1
    21    31    34    1
    22    31    39    1
    23    32    35    1
    24    32    40    1
    25    41    43   ar
    26    15    19    2
    27    42    43   ar
    28    16    22    2
    29    17    12    1
    30    17    19   ar
    31    17    20   ar
    32    18    19   ar
    33    18    22   ar
    34    18    23    1
    35     9    10    1
    36     9    11    1
    37    10    12    1
    38    11     5    1
    39    33    34    1
    40    33    35    1
    41    34    36    1
    42    35    37    1
    43    37    43    1
    44    20    21   ar
    45    21    22   ar
@<TRIPOS>MOLECULE
UDP-glaA
 43 45 0 0 0
SMALL
GASTEIGER

@<TRIPOS>ATOM
      1 P          21.7862   72.5804   -5.8446 P.3     1  UNL1        0.2189
      2 O          21.4775   74.1437   -6.1243 O.3     1  UNL1       -0.4371
      3 O          23.1889   72.2814   -5.4028 O.2     1  UNL1       -0.5170
      4 O          21.3026   71.8393   -7.1983 O.3     1  UNL1       -0.3112
      5 C          19.9980   72.1032   -7.6859 C.3     1  UNL1        0.1811
      6 O          18.8986   70.0285   -7.1747 O.3     1  UNL1       -0.3308
      7 O          18.1298   69.9379  -10.0716 O.3     1  UNL1       -0.3794
      8 O          15.8425   70.8176   -8.8757 O.3     1  UNL1       -0.3779
      9 C          18.2392   71.0638   -9.2010 C.3     1  UNL1        0.1713
     10 C          17.0713   71.0986   -8.2380 C.3     1  UNL1        0.1895
     11 C          19.4165   70.8216   -8.2656 C.3     1  UNL1        0.1764
     12 C          17.4625   70.0327   -7.2287 C.3     1  UNL1        0.2383
     13 H          18.9171   69.9351  -10.6423 H       1  UNL1        0.2105
     14 H          15.7191   71.4794   -9.5779 H       1  UNL1        0.2106
     15 O          16.4635   68.0631   -5.4684 O.2     1  UNL1       -0.2464
     16 O          15.5059   71.1899   -2.2212 O.2     1  UNL1       -0.2670
     17 N          16.9465   70.3038   -5.9173 N.ar    1  UNL1       -0.2551
     18 N          15.9868   69.6215   -3.8528 N.ar    1  UNL1       -0.2743
     19 C          16.4680   69.2431   -5.1131 C.ar    1  UNL1        0.3323
     20 C          16.9180   71.6095   -5.4400 C.ar    1  UNL1        0.0869
     21 C          16.4565   71.9540   -4.2358 C.ar    1  UNL1        0.0795
     22 C          15.9377   70.9062   -3.3343 C.ar    1  UNL1        0.2626
     23 H          15.6372   68.8754   -3.2576 H       1  UNL1        0.1734
     24 O          20.6422   72.1704   -4.7776 O.3     1  UNL1       -0.2703
     25 P          20.7537   71.6413   -3.2544 P.3     1  UNL1        0.2208
     26 O          21.5423   70.2372   -3.4061 O.3     1  UNL1       -0.4371
     27 O          19.4366   71.5386   -2.5400 O.2     1  UNL1       -0.5170
     28 O          21.8166   72.6330   -2.5538 O.3     1  UNL1       -0.2858
     29 O          21.6134   72.2827   -0.2224 O.3     1  UNL1       -0.3226
     30 O          24.6644   75.0992   -0.4174 O.3     1  UNL1       -0.3794
     31 O          22.3345   75.3159   -2.1582 O.3     1  UNL1       -0.3775
     32 O          23.5133   73.5220    1.5364 O.3     1  UNL1       -0.3792
     33 C          23.8596   73.9902   -0.8079 C.3     1  UNL1        0.1718
     34 C          22.4122   74.4362   -1.0415 C.3     1  UNL1        0.1968
     35 C          23.9093   72.9294    0.2951 C.3     1  UNL1        0.1723
     36 C          21.5048   73.2257   -1.2938 C.3     1  UNL1        0.2706
     37 C          22.9420   71.7959   -0.0390 C.3     1  UNL1        0.1830
     38 H          25.5690   74.7707   -0.2783 H       1  UNL1        0.2105
     39 H          21.4014   75.5631   -2.2725 H       1  UNL1        0.2106
     40 H          22.5516   73.6635    1.5182 H       1  UNL1        0.2106
     41 O          21.6461   70.2005    1.0921 O.co2   1  UNL1       -0.5466
     42 O          23.7637   70.5517    1.8601 O.co2   1  UNL1       -0.5466
     43 C          22.8612   70.7996    1.0736 C.2     1  UNL1        0.0799
@<TRIPOS>UNITY_ATOM_ATTR
41 1
charge -1
@<TRIPOS>BOND
     1     1     4    1
     2     1    24    1
     3     1     2    1
     4     1     3    2
     5    25    28    1
     6    25    24    1
     7    25    26    1
     8    25    27    2
     9     6    11    1
    10     6    12    1
    11    29    36    1
    12    29    37    1
    13     7     9    1
    14     7    13    1
    15     8    10    1
    16     8    14    1
    17     4     5    1
    18    28    36    1
    19    30    33    1
    20    30    38    1
    21    31    34    1
    22    31    39    1
    23    32    35    1
    24    32    40    1
    25    41    43   ar
    26    15    19    2
    27    42    43   ar
    28    16    22    2
    29    17    12    1
    30    17    19   ar
    31    17    20   ar
    32    18    19   ar
    33    18    22   ar
    34    18    23    1
    35     9    10    1
    36     9    11    1
    37    10    12    1
    38    11     5    1
    39    33    34    1
    40    33    35    1
    41    34    36    1
    42    35    37    1
    43    37    43    1
    44    20    21   ar
    45    21    22   ar
@<TRIPOS>MOLECULE
UDP-glaA
 43 45 0 0 0
SMALL
GASTEIGER

@<TRIPOS>ATOM
      1 P          20.4845   73.4501   -2.3026 P.3     1  UNL1        0.2189
      2 O          19.6994   74.8318   -2.6059 O.3     1  UNL1       -0.4371
      3 O          19.6165   72.2269   -2.2519 O.2     1  UNL1       -0.5170
      4 O          21.3295   73.7685   -0.9609 O.3     1  UNL1       -0.3112
      5 C          22.2529   72.7988   -0.4959 C.3     1  UNL1        0.1811
      6 O          22.7066   71.3094    1.3345 O.3     1  UNL1       -0.3308
      7 O          20.1874   72.3639    2.5725 O.3     1  UNL1       -0.3794
      8 O          22.1279   73.7310    3.9146 O.3     1  UNL1       -0.3779
      9 C          21.1643   73.0493    1.7891 C.3     1  UNL1        0.1713
     10 C          22.4174   73.2888    2.6045 C.3     1  UNL1        0.1895
     11 C          21.6615   72.0909    0.7148 C.3     1  UNL1        0.1764
     12 C          23.0751   71.9195    2.5824 C.3     1  UNL1        0.2383
     13 H          19.4200   72.1982    1.9986 H       1  UNL1        0.2105
     14 H          21.6136   74.5532    3.8390 H       1  UNL1        0.2106
     15 O          24.8134   69.7204    2.2393 O.2     1  UNL1       -0.2464
     16 O          28.5492   72.3360    2.9037 O.2     1  UNL1       -0.2670
     17 N          24.5060   71.9973    2.6599 N.ar    1  UNL1       -0.2551
     18 N          26.6725   71.0242    2.5709 N.ar    1  UNL1       -0.2743
     19 C          25.2879   70.8335    2.4732 C.ar    1  UNL1        0.3323
     20 C          25.1208   73.2173    2.9187 C.ar    1  UNL1        0.0869
     21 C          26.4423   73.3829    3.0083 C.ar    1  UNL1        0.0795
     22 C          27.3302   72.2174    2.8269 C.ar    1  UNL1        0.2626
     23 H          27.2545   70.2011    2.4408 H       1  UNL1        0.1734
     24 O          21.6232   73.4209   -3.4505 O.3     1  UNL1       -0.2703
     25 P          21.9562   72.3197   -4.5858 P.3     1  UNL1        0.2208
     26 O          22.0666   70.9421   -3.7455 O.3     1  UNL1       -0.4371
     27 O          23.1663   72.6379   -5.4165 O.2     1  UNL1       -0.5170
     28 O          20.5880   72.1751   -5.4291 O.3     1  UNL1       -0.2858
     29 O          19.3575   70.1571   -5.3156 O.3     1  UNL1       -0.3226
     30 O          17.7867   71.9443   -8.7240 O.3     1  UNL1       -0.3794
     31 O          20.6515   72.0421   -8.1861 O.3     1  UNL1       -0.3775
     32 O          17.1980   69.7444   -7.1607 O.3     1  UNL1       -0.3792
     33 C          18.3531   71.8500   -7.4200 C.3     1  UNL1        0.1718
     34 C          19.7403   71.2021   -7.4853 C.3     1  UNL1        0.1968
     35 C          17.4248   71.0123   -6.5363 C.3     1  UNL1        0.1723
     36 C          20.2843   70.9398   -6.0755 C.3     1  UNL1        0.2706
     37 C          18.0815   70.7802   -5.1772 C.3     1  UNL1        0.1830
     38 H          16.9107   72.3568   -8.6343 H       1  UNL1        0.2105
     39 H          21.5152   71.5962   -8.1935 H       1  UNL1        0.2106
     40 H          18.0033   69.2073   -7.0707 H       1  UNL1        0.2106
     41 O          16.7457   70.5206   -3.2662 O.co2   1  UNL1       -0.5466
     42 O          17.0897   68.6696   -4.5516 O.co2   1  UNL1       -0.5466
     43 C          17.2675   69.8579   -4.3265 C.2     1  UNL1        0.0799
@<TRIPOS>UNITY_ATOM_ATTR
41 1
charge -1
@<TRIPOS>BOND
     1     1     4    1
     2     1    24    1
     3     1     2    1
     4     1     3    2
     5    25    28    1
     6    25    24    1
     7    25    26    1
     8    25    27    2
     9     6    11    1
    10     6    12    1
    11    29    36    1
    12    29    37    1
    13     7     9    1
    14     7    13    1
    15     8    10    1
    16     8    14    1
    17     4     5    1
    18    28    36    1
    19    30    33    1
    20    30    38    1
    21    31    34    1
    22    31    39    1
    23    32    35    1
    24    32    40    1
    25    41    43   ar
    26    15    19    2
    27    42    43   ar
    28    16    22    2
    29    17    12    1
    30    17    19   ar
    31    17    20   ar
    32    18    19   ar
    33    18    22   ar
    34    18    23    1
    35     9    10    1
    36     9    11    1
    37    10    12    1
    38    11     5    1
    39    33    34    1
    40    33    35    1
    41    34    36    1
    42    35    37    1
    43    37    43    1
    44    20    21   ar
    45    21    22   ar
@<TRIPOS>MOLECULE
UDP-glaA
 43 45 0 0 0
SMALL
GASTEIGER

@<TRIPOS>ATOM
      1 P          21.8881   72.4890   -5.7540 P.3     1  UNL1        0.2189
      2 O          21.2006   73.9172   -5.4299 O.3     1  UNL1       -0.4371
      3 O          23.1280   72.5600   -6.5964 O.2     1  UNL1       -0.5170
      4 O          20.6780   71.6021   -6.3578 O.3     1  UNL1       -0.3112
      5 C          20.1310   71.9677   -7.6133 C.3     1  UNL1        0.1811
      6 O          18.9077   69.9459   -7.1773 O.3     1  UNL1       -0.3308
      7 O          18.1193   70.0206  -10.0694 O.3     1  UNL1       -0.3794
      8 O          15.8974   70.9909   -8.8212 O.3     1  UNL1       -0.3779
      9 C          18.3031   71.1014   -9.1551 C.3     1  UNL1        0.1713
     10 C          17.1447   71.1692   -8.1824 C.3     1  UNL1        0.1895
     11 C          19.4680   70.7491   -8.2394 C.3     1  UNL1        0.1764
     12 C          17.4743   70.0410   -7.2198 C.3     1  UNL1        0.2383
     13 H          18.9019   69.9924  -10.6458 H       1  UNL1        0.2105
     14 H          15.8117   71.6869   -9.4953 H       1  UNL1        0.2106
     15 O          16.2887   68.0847   -5.5637 O.2     1  UNL1       -0.2464
     16 O          15.6240   71.1119   -2.1530 O.2     1  UNL1       -0.2670
     17 N          16.9832   70.2901   -5.8946 N.ar    1  UNL1       -0.2551
     18 N          15.9580   69.5936   -3.8666 N.ar    1  UNL1       -0.2743
     19 C          16.4043   69.2385   -5.1464 C.ar    1  UNL1        0.3323
     20 C          17.0774   71.5655   -5.3487 C.ar    1  UNL1        0.0869
     21 C          16.6477   71.8880   -4.1268 C.ar    1  UNL1        0.0795
     22 C          16.0297   70.8479   -3.2807 C.ar    1  UNL1        0.2626
     23 H          15.5377   68.8536   -3.3109 H       1  UNL1        0.1734
     24 O          22.1079   71.8509   -4.2845 O.3     1  UNL1       -0.2703
     25 P          23.3323   71.9935   -3.2389 P.3     1  UNL1        0.2208
     26 O          24.0368   73.3811   -3.6796 O.3     1  UNL1       -0.4371
     27 O          24.2574   70.8107   -3.2088 O.2     1  UNL1       -0.5170
     28 O          22.6269   72.3243   -1.8258 O.3     1  UNL1       -0.2858
     29 O          23.1930   70.8294   -0.0810 O.3     1  UNL1       -0.3226
     30 O          20.0918   73.0156    1.6168 O.3     1  UNL1       -0.3794
     31 O          19.9505   72.1608   -1.1680 O.3     1  UNL1       -0.3775
     32 O          21.9328   71.1452    2.4785 O.3     1  UNL1       -0.3792
     33 C          21.2351   72.7467    0.8101 C.3     1  UNL1        0.1718
     34 C          20.9110   71.6750   -0.2361 C.3     1  UNL1        0.1968
     35 C          22.3767   72.2699    1.7123 C.3     1  UNL1        0.1723
     36 C          22.1766   71.2557   -0.9943 C.3     1  UNL1        0.2706
     37 C          23.5646   71.8414    0.8536 C.3     1  UNL1        0.1830
     38 H          20.3431   73.6959    2.2646 H       1  UNL1        0.2105
     39 H          19.7847   71.4536   -1.8139 H       1  UNL1        0.2106
     40 H          21.8827   70.3719    1.8914 H       1  UNL1        0.2106
     41 O          25.4849   72.2128    2.1491 O.co2   1  UNL1       -0.5466
     42 O          24.7859   70.0546    1.9240 O.co2   1  UNL1       -0.5466
     43 C          24.6555   71.2467    1.6863 C.2     1  UNL1        0.0799
@<TRIPOS>UNITY_ATOM_ATTR
41 1
charge -1
@<TRIPOS>BOND
     1     1     4    1
     2     1    24    1
     3     1     2    1
     4     1     3    2
     5    25    28    1
     6    25    24    1
     7    25    26    1
     8    25    27    2
     9     6    11    1
    10     6    12    1
    11    29    36    1
    12    29    37    1
    13     7     9    1
    14     7    13    1
    15     8    10    1
    16     8    14    1
    17     4     5    1
    18    28    36    1
    19    30    33    1
    20    30    38    1
    21    31    34    1
    22    31    39    1
    23    32    35    1
    24    32    40    1
    25    41    43   ar
    26    15    19    2
    27    42    43   ar
    28    16    22    2
    29    17    12    1
    30    17    19   ar
    31    17    20   ar
    32    18    19   ar
    33    18    22   ar
    34    18    23    1
    35     9    10    1
    36     9    11    1
    37    10    12    1
    38    11     5    1
    39    33    34    1
    40    33    35    1
    41    34    36    1
    42    35    37    1
    43    37    43    1
    44    20    21   ar
    45    21    22   ar
@<TRIPOS>MOLECULE
UDP-glaA
 43 45 0 0 0
SMALL
GASTEIGER

@<TRIPOS>ATOM
      1 P          23.6361   72.5062   -3.3366 P.3     1  UNL1        0.2189
      2 O          24.0825   70.9708   -3.0904 O.3     1  UNL1       -0.4371
      3 O          24.7122   73.3985   -3.8825 O.2     1  UNL1       -0.5170
      4 O          22.9991   72.9586   -1.9206 O.3     1  UNL1       -0.3112
      5 C          22.6986   71.9582   -0.9624 C.3     1  UNL1        0.1811
      6 O          22.5438   72.2219    1.4210 O.3     1  UNL1       -0.3308
      7 O          20.7512   74.5588    0.8583 O.3     1  UNL1       -0.3794
      8 O          23.1332   75.7586    1.4261 O.3     1  UNL1       -0.3779
      9 C          21.8983   74.1066    0.1390 C.3     1  UNL1        0.1713
     10 C          23.1628   74.4486    0.8983 C.3     1  UNL1        0.1895
     11 C          21.9060   72.5840    0.1764 C.3     1  UNL1        0.1764
     12 C          23.1789   73.3830    1.9811 C.3     1  UNL1        0.2383
     13 H          19.9662   74.2838    0.3545 H       1  UNL1        0.2105
     14 H          23.0123   76.3718    0.6807 H       1  UNL1        0.2106
     15 O          24.8122   74.9915    3.6305 O.2     1  UNL1       -0.2464
     16 O          28.2725   71.9514    3.4805 O.2     1  UNL1       -0.2670
     17 N          24.5102   73.0362    2.3892 N.ar    1  UNL1       -0.2551
     18 N          26.5344   73.4768    3.5543 N.ar    1  UNL1       -0.2743
     19 C          25.2465   73.9145    3.2181 C.ar    1  UNL1        0.3323
     20 C          25.0739   71.8368    1.9683 C.ar    1  UNL1        0.0869
     21 C          26.3029   71.4335    2.2978 C.ar    1  UNL1        0.0795
     22 C          27.1382   72.2929    3.1599 C.ar    1  UNL1        0.2626
     23 H          27.0823   74.0926    4.1491 H       1  UNL1        0.1734
     24 O          22.3371   72.3577   -4.2883 O.3     1  UNL1       -0.2703
     25 P          21.9430   73.1016   -5.6681 P.3     1  UNL1        0.2208
     26 O          23.0286   72.5290   -6.7216 O.3     1  UNL1       -0.4371
     27 O          21.9041   74.5999   -5.5707 O.2     1  UNL1       -0.5170
     28 O          20.5467   72.4260   -6.1126 O.3     1  UNL1       -0.2858
     29 O          19.5856   70.2722   -5.9203 O.3     1  UNL1       -0.3226
     30 O          18.5033   71.3673   -9.7815 O.3     1  UNL1       -0.3794
     31 O          21.1694   71.9684   -8.7632 O.3     1  UNL1       -0.3775
     32 O          17.9031   69.3109   -8.0377 O.3     1  UNL1       -0.3792
     33 C          18.8086   71.5211   -8.3982 C.3     1  UNL1        0.1718
     34 C          20.2525   71.0906   -8.1185 C.3     1  UNL1        0.1968
     35 C          17.8387   70.6652   -7.5789 C.3     1  UNL1        0.1723
     36 C          20.5365   71.0890   -6.6112 C.3     1  UNL1        0.2706
     37 C          18.2385   70.7044   -6.1056 C.3     1  UNL1        0.1830
     38 H          17.5816   71.6484   -9.9115 H       1  UNL1        0.2105
     39 H          22.0672   71.6628   -8.5503 H       1  UNL1        0.2106
     40 H          18.7366   68.9187   -7.7268 H       1  UNL1        0.2106
     41 O          17.8931   69.6676   -4.0296 O.co2   1  UNL1       -0.5466
     42 O          16.3961   69.2017   -5.6846 O.co2   1  UNL1       -0.5466
     43 C          17.3970   69.7791   -5.2854 C.2     1  UNL1        0.0799
@<TRIPOS>UNITY_ATOM_ATTR
41 1
charge -1
@<TRIPOS>BOND
     1     1     4    1
     2     1    24    1
     3     1     2    1
     4     1     3    2
     5    25    28    1
     6    25    24    1
     7    25    26    1
     8    25    27    2
     9     6    11    1
    10     6    12    1
    11    29    36    1
    12    29    37    1
    13     7     9    1
    14     7    13    1
    15     8    10    1
    16     8    14    1
    17     4     5    1
    18    28    36    1
    19    30    33    1
    20    30    38    1
    21    31    34    1
    22    31    39    1
    23    32    35    1
    24    32    40    1
    25    41    43   ar
    26    15    19    2
    27    42    43   ar
    28    16    22    2
    29    17    12    1
    30    17    19   ar
    31    17    20   ar
    32    18    19   ar
    33    18    22   ar
    34    18    23    1
    35     9    10    1
    36     9    11    1
    37    10    12    1
    38    11     5    1
    39    33    34    1
    40    33    35    1
    41    34    36    1
    42    35    37    1
    43    37    43    1
    44    20    21   ar
    45    21    22   ar
@<TRIPOS>MOLECULE
UDP-glaA
 43 45 0 0 0
SMALL
GASTEIGER

@<TRIPOS>ATOM
      1 P          22.2818   71.5254   -0.3120 P.3     1  UNL1        0.2189
      2 O          21.2081   70.4591    0.2602 O.3     1  UNL1       -0.4371
      3 O          23.6669   70.9836   -0.5124 O.2     1  UNL1       -0.5170
      4 O          22.1581   72.7829    0.6974 O.3     1  UNL1       -0.3112
      5 C          22.8448   72.7272    1.9362 C.3     1  UNL1        0.1811
      6 O          22.5599   72.3904    4.2984 O.3     1  UNL1       -0.3308
      7 O          19.6905   73.1489    3.8710 O.3     1  UNL1       -0.3794
      8 O          20.7688   75.4418    4.8787 O.3     1  UNL1       -0.3779
      9 C          20.8631   73.6547    3.2331 C.3     1  UNL1        0.1713
     10 C          21.6233   74.5635    4.1758 C.3     1  UNL1        0.1895
     11 C          21.8361   72.4970    3.0526 C.3     1  UNL1        0.1764
     12 C          22.3135   73.5648    5.0892 C.3     1  UNL1        0.2383
     13 H          19.2584   72.5431    3.2450 H       1  UNL1        0.2105
     14 H          20.2853   75.9694    4.2198 H       1  UNL1        0.2106
     15 O          22.8890   73.9358    7.8290 O.2     1  UNL1       -0.2464
     16 O          27.1402   75.4635    6.9169 O.2     1  UNL1       -0.2670
     17 N          23.5624   74.0575    5.5958 N.ar    1  UNL1       -0.2551
     18 N          25.0053   74.6968    7.3730 N.ar    1  UNL1       -0.2743
     19 C          23.7494   74.2079    6.9898 C.ar    1  UNL1        0.3323
     20 C          24.5866   74.3862    4.7147 C.ar    1  UNL1        0.0869
     21 C          25.7786   74.8507    5.0957 C.ar    1  UNL1        0.0795
     22 C          26.0548   75.0378    6.5339 C.ar    1  UNL1        0.2626
     23 H          25.1620   74.8136    8.3704 H       1  UNL1        0.1734
     24 O          21.5701   72.0693   -1.6584 O.3     1  UNL1       -0.2703
     25 P          21.8811   73.3653   -2.5728 P.3     1  UNL1        0.2208
     26 O          23.4580   73.2180   -2.9012 O.3     1  UNL1       -0.4371
     27 O          21.4993   74.6724   -1.9390 O.2     1  UNL1       -0.5170
     28 O          21.1420   73.0634   -3.9751 O.3     1  UNL1       -0.2858
     29 O          19.9598   71.1303   -4.6572 O.3     1  UNL1       -0.3226
     30 O          21.5356   72.5009   -8.2513 O.3     1  UNL1       -0.3794
     31 O          23.1373   72.5557   -5.8146 O.3     1  UNL1       -0.3775
     32 O          19.7377   70.5585   -7.4611 O.3     1  UNL1       -0.3792
     33 C          20.9829   72.5615   -6.9393 C.3     1  UNL1        0.1718
     34 C          21.9038   71.8557   -5.9383 C.3     1  UNL1        0.1968
     35 C          19.6073   71.8892   -6.9500 C.3     1  UNL1        0.1723
     36 C          21.2391   71.7651   -4.5591 C.3     1  UNL1        0.2706
     37 C          19.0603   71.8171   -5.5260 C.3     1  UNL1        0.1830
     38 H          20.9199   72.9566   -8.8503 H       1  UNL1        0.2105
     39 H          23.6815   72.0786   -5.1657 H       1  UNL1        0.2106
     40 H          20.1606   70.0067   -6.7817 H       1  UNL1        0.2106
     41 O          16.7161   71.8880   -5.5828 O.co2   1  UNL1       -0.5466
     42 O          17.6873   69.8392   -5.3460 O.co2   1  UNL1       -0.5466
     43 C          17.7764   71.0520   -5.4710 C.2     1  UNL1        0.0799
@<TRIPOS>UNITY_ATOM_ATTR
41 1
charge -1
@<TRIPOS>BOND
     1     1     4    1
     2     1    24    1
     3     1     2    1
     4     1     3    2
     5    25    28    1
     6    25    24    1
     7    25    26    1
     8    25    27    2
     9     6    11    1
    10     6    12    1
    11    29    36    1
    12    29    37    1
    13     7     9    1
    14     7    13    1
    15     8    10    1
    16     8    14    1
    17     4     5    1
    18    28    36    1
    19    30    33    1
    20    30    38    1
    21    31    34    1
    22    31    39    1
    23    32    35    1
    24    32    40    1
    25    41    43   ar
    26    15    19    2
    27    42    43   ar
    28    16    22    2
    29    17    12    1
    30    17    19   ar
    31    17    20   ar
    32    18    19   ar
    33    18    22   ar
    34    18    23    1
    35     9    10    1
    36     9    11    1
    37    10    12    1
    38    11     5    1
    39    33    34    1
    40    33    35    1
    41    34    36    1
    42    35    37    1
    43    37    43    1
    44    20    21   ar
    45    21    22   ar
@<TRIPOS>MOLECULE
UDP-glaA
 43 45 0 0 0
SMALL
GASTEIGER

@<TRIPOS>ATOM
      1 P          23.4105   72.1974   -3.5099 P.3     1  UNL1        0.2189
      2 O          23.9791   70.7153   -3.1979 O.3     1  UNL1       -0.4371
      3 O          24.4160   73.1539   -4.0810 O.2     1  UNL1       -0.5170
      4 O          22.7200   72.6506   -2.1194 O.3     1  UNL1       -0.3112
      5 C          23.5244   72.7186   -0.9543 C.3     1  UNL1        0.1811
      6 O          24.5126   71.2314    0.6539 O.3     1  UNL1       -0.3308
      7 O          21.7332   70.2208    1.1489 O.3     1  UNL1       -0.3794
      8 O          22.1413   71.8990    3.2590 O.3     1  UNL1       -0.3779
      9 C          22.1731   71.5464    0.8538 C.3     1  UNL1        0.1713
     10 C          22.8482   72.1572    2.0636 C.3     1  UNL1        0.1895
     11 C          23.3244   71.4492   -0.1385 C.3     1  UNL1        0.1764
     12 C          24.2120   71.4883    2.0355 C.3     1  UNL1        0.2383
     13 H          21.3436   69.8569    0.3356 H       1  UNL1        0.2105
     14 H          21.2456   72.2635    3.1540 H       1  UNL1        0.2106
     15 O          26.8815   70.6624    2.4442 O.2     1  UNL1       -0.2464
     16 O          28.0772   74.7621    4.1767 O.2     1  UNL1       -0.2670
     17 N          25.2417   72.3192    2.5910 N.ar    1  UNL1       -0.2551
     18 N          27.4750   72.7042    3.3071 N.ar    1  UNL1       -0.2743
     19 C          26.5502   71.8078    2.7555 C.ar    1  UNL1        0.3323
     20 C          24.9505   73.6259    2.9667 C.ar    1  UNL1        0.0869
     21 C          25.8435   74.4683    3.4909 C.ar    1  UNL1        0.0795
     22 C          27.2325   74.0124    3.6965 C.ar    1  UNL1        0.2626
     23 H          28.4220   72.3580    3.4351 H       1  UNL1        0.1734
     24 O          22.1405   71.9042   -4.4672 O.3     1  UNL1       -0.2703
     25 P          21.4882   72.7777   -5.6605 P.3     1  UNL1        0.2208
     26 O          22.2881   72.2707   -6.9716 O.3     1  UNL1       -0.4371
     27 O          21.5413   74.2620   -5.4372 O.2     1  UNL1       -0.5170
     28 O          19.9984   72.1828   -5.8355 O.3     1  UNL1       -0.2858
     29 O          19.1243   70.1083   -5.1062 O.3     1  UNL1       -0.3226
     30 O          16.9094   70.8244   -8.5502 O.3     1  UNL1       -0.3794
     31 O          19.7651   71.4119   -8.4763 O.3     1  UNL1       -0.3775
     32 O          16.8599   68.9991   -6.4775 O.3     1  UNL1       -0.3792
     33 C          17.6295   71.1139   -7.3552 C.3     1  UNL1        0.1718
     34 C          19.0850   70.6518   -7.4831 C.3     1  UNL1        0.1968
     35 C          16.9533   70.3968   -6.1835 C.3     1  UNL1        0.1723
     36 C          19.8219   70.8014   -6.1464 C.3     1  UNL1        0.2706
     37 C          17.7902   70.5781   -4.9190 C.3     1  UNL1        0.1830
     38 H          15.9953   71.1310   -8.4234 H       1  UNL1        0.2105
     39 H          20.6819   71.0911   -8.5146 H       1  UNL1        0.2106
     40 H          17.7450   68.6059   -6.3934 H       1  UNL1        0.2106
     41 O          17.9879   69.9606   -2.6643 O.co2   1  UNL1       -0.5466
     42 O          16.2395   69.0798   -3.8325 O.co2   1  UNL1       -0.5466
     43 C          17.2356   69.7864   -3.7776 C.2     1  UNL1        0.0799
@<TRIPOS>UNITY_ATOM_ATTR
41 1
charge -1
@<TRIPOS>BOND
     1     1     4    1
     2     1    24    1
     3     1     2    1
     4     1     3    2
     5    25    28    1
     6    25    24    1
     7    25    26    1
     8    25    27    2
     9     6    11    1
    10     6    12    1
    11    29    36    1
    12    29    37    1
    13     7     9    1
    14     7    13    1
    15     8    10    1
    16     8    14    1
    17     4     5    1
    18    28    36    1
    19    30    33    1
    20    30    38    1
    21    31    34    1
    22    31    39    1
    23    32    35    1
    24    32    40    1
    25    41    43   ar
    26    15    19    2
    27    42    43   ar
    28    16    22    2
    29    17    12    1
    30    17    19   ar
    31    17    20   ar
    32    18    19   ar
    33    18    22   ar
    34    18    23    1
    35     9    10    1
    36     9    11    1
    37    10    12    1
    38    11     5    1
    39    33    34    1
    40    33    35    1
    41    34    36    1
    42    35    37    1
    43    37    43    1
    44    20    21   ar
    45    21    22   ar
@<TRIPOS>MOLECULE
UDP-glaA
 43 45 0 0 0
SMALL
GASTEIGER

@<TRIPOS>ATOM
      1 P          15.9969   69.9519   -2.7523 P.3     1  UNL1        0.2189
      2 O          16.2815   68.8266   -3.8793 O.3     1  UNL1       -0.4371
      3 O          15.3603   71.2116   -3.2622 O.2     1  UNL1       -0.5170
      4 O          17.4245   70.1345   -2.0146 O.3     1  UNL1       -0.3112
      5 C          18.1828   71.3010   -2.2857 C.3     1  UNL1        0.1811
      6 O          19.7526   70.0772   -3.6320 O.3     1  UNL1       -0.3308
      7 O          21.8814   71.7358   -2.3250 O.3     1  UNL1       -0.3794
      8 O          21.5816   72.9526   -4.7468 O.3     1  UNL1       -0.3779
      9 C          20.5578   72.1059   -2.7107 C.3     1  UNL1        0.1713
     10 C          20.4724   72.2582   -4.2148 C.3     1  UNL1        0.1895
     11 C          19.6445   70.9134   -2.4589 C.3     1  UNL1        0.1764
     12 C          20.4129   70.8119   -4.6758 C.3     1  UNL1        0.2383
     13 H          21.8782   71.6118   -1.3605 H       1  UNL1        0.2105
     14 H          21.6112   73.8268   -4.3214 H       1  UNL1        0.2106
     15 O          21.4940   71.1994   -7.2558 O.2     1  UNL1       -0.2464
     16 O          17.4838   70.1857   -9.2879 O.2     1  UNL1       -0.2670
     17 N          19.6743   70.6555   -5.8962 N.ar    1  UNL1       -0.2551
     18 N          19.4962   70.6948   -8.2660 N.ar    1  UNL1       -0.2743
     19 C          20.3109   70.8746   -7.1403 C.ar    1  UNL1        0.3323
     20 C          18.3338   70.2889   -5.8531 C.ar    1  UNL1        0.0869
     21 C          17.5707   70.1210   -6.9353 C.ar    1  UNL1        0.0795
     22 C          18.1585   70.3313   -8.2732 C.ar    1  UNL1        0.2626
     23 H          19.9326   70.8476   -9.1712 H       1  UNL1        0.1734
     24 O          15.1205   69.1512   -1.6541 O.3     1  UNL1       -0.2703
     25 P          13.9040   69.6389   -0.7081 P.3     1  UNL1        0.2208
     26 O          12.6468   69.7028   -1.7237 O.3     1  UNL1       -0.4371
     27 O          14.1718   70.9202    0.0283 O.2     1  UNL1       -0.5170
     28 O          13.5950   68.3741    0.2452 O.3     1  UNL1       -0.2858
     29 O          11.6509   68.7458    1.5421 O.3     1  UNL1       -0.3226
     30 O          13.0163   65.1166    3.0400 O.3     1  UNL1       -0.3794
     31 O          14.8916   67.2607    2.4136 O.3     1  UNL1       -0.3775
     32 O          10.7573   66.6807    3.3240 O.3     1  UNL1       -0.3792
     33 C          12.7593   66.1419    2.0844 C.3     1  UNL1        0.1718
     34 C          13.4802   67.4348    2.4808 C.3     1  UNL1        0.1968
     35 C          11.2493   66.3848    2.0128 C.3     1  UNL1        0.1723
     36 C          13.0736   68.5888    1.5560 C.3     1  UNL1        0.2706
     37 C          10.9638   67.5759    1.1006 C.3     1  UNL1        0.1830
     38 H          12.5397   64.3199    2.7509 H       1  UNL1        0.2105
     39 H          15.3036   68.1050    2.6629 H       1  UNL1        0.2106
     40 H          11.0353   67.5813    3.5623 H       1  UNL1        0.2106
     41 O           8.7455   66.8139    1.1460 O.co2   1  UNL1       -0.5466
     42 O           9.0671   69.0697    1.0732 O.co2   1  UNL1       -0.5466
     43 C           9.5110   67.9310    1.1028 C.2     1  UNL1        0.0799
@<TRIPOS>UNITY_ATOM_ATTR
41 1
charge -1
@<TRIPOS>BOND
     1     1     4    1
     2     1    24    1
     3     1     2    1
     4     1     3    2
     5    25    28    1
     6    25    24    1
     7    25    26    1
     8    25    27    2
     9     6    11    1
    10     6    12    1
    11    29    36    1
    12    29    37    1
    13     7     9    1
    14     7    13    1
    15     8    10    1
    16     8    14    1
    17     4     5    1
    18    28    36    1
    19    30    33    1
    20    30    38    1
    21    31    34    1
    22    31    39    1
    23    32    35    1
    24    32    40    1
    25    41    43   ar
    26    15    19    2
    27    42    43   ar
    28    16    22    2
    29    17    12    1
    30    17    19   ar
    31    17    20   ar
    32    18    19   ar
    33    18    22   ar
    34    18    23    1
    35     9    10    1
    36     9    11    1
    37    10    12    1
    38    11     5    1
    39    33    34    1
    40    33    35    1
    41    34    36    1
    42    35    37    1
    43    37    43    1
    44    20    21   ar
    45    21    22   ar
