
 OpenBabel04092510443D

 45 46  0  0  1  0  0  0  0  0999 V2000
    4.8475    4.1598    2.5872 O   0  0  0  0  0  0  0  0  0  0  0  0
    4.1654    3.0396    3.1564 C   0  0  0  0  0  0  0  0  0  0  0  0
    3.8379    2.0166    2.0600 C   0  0  1  0  0  0  0  0  0  0  0  0
    5.0745    1.4745    1.5705 O   0  0  0  0  0  0  0  0  0  0  0  0
    4.8930    0.5578    0.4942 C   0  0  1  0  0  0  0  0  0  0  0  0
    6.1684    0.1219    0.0203 O   0  0  0  0  0  0  0  0  0  0  0  0
    6.9907    1.1503   -0.5769 C   0  0  2  0  0  0  0  0  0  0  0  0
    6.4294    1.6189   -1.9385 C   0  0  1  0  0  0  0  0  0  0  0  0
    5.2694    2.4490   -1.7604 O   0  0  0  0  0  0  0  0  0  0  0  0
    7.4786    2.3964   -2.7547 C   0  0  1  0  0  0  0  0  0  0  0  0
    7.6443    3.7232   -2.2594 O   0  0  0  0  0  0  0  0  0  0  0  0
    8.7167    1.7250   -2.8679 O   0  0  0  0  0  0  0  0  0  0  0  0
    9.3203    1.4228   -1.6123 C   0  0  2  0  0  0  0  0  0  0  0  0
   10.6748    0.7474   -1.8890 C   0  0  0  0  0  0  0  0  0  0  0  0
   11.4310    0.5378   -0.7024 O   0  0  0  0  0  0  0  0  0  0  0  0
    8.4021    0.5319   -0.7559 C   0  0  1  0  0  0  0  0  0  0  0  0
    9.0342    0.2843    0.5114 O   0  0  0  0  0  0  0  0  0  0  0  0
    4.0841   -0.6698    0.9718 C   0  0  2  0  0  0  0  0  0  0  0  0
    3.8608   -1.6171   -0.0827 O   0  0  0  0  0  0  0  0  0  0  0  0
    2.7345   -0.1823    1.5420 C   0  0  1  0  0  0  0  0  0  0  0  0
    1.9589   -1.2630    2.0727 O   0  0  0  0  0  0  0  0  0  0  0  0
    2.9515    0.8940    2.6171 C   0  0  2  0  0  0  0  0  0  0  0  0
    1.7099    1.4254    3.0856 O   0  0  0  0  0  0  0  0  0  0  0  0
    5.1502    4.7048    3.3340 H   0  0  0  0  0  0  0  0  0  0  0  0
    3.2605    3.4120    3.6459 H   0  0  0  0  0  0  0  0  0  0  0  0
    4.8280    2.5962    3.9066 H   0  0  0  0  0  0  0  0  0  0  0  0
    3.3325    2.5427    1.2384 H   0  0  0  0  0  0  0  0  0  0  0  0
    4.3321    1.0192   -0.3210 H   0  0  0  0  0  0  0  0  0  0  0  0
    7.0475    1.9915    0.1265 H   0  0  0  0  0  0  0  0  0  0  0  0
    6.1130    0.7314   -2.4985 H   0  0  0  0  0  0  0  0  0  0  0  0
    5.5545    3.3806   -1.8534 H   0  0  0  0  0  0  0  0  0  0  0  0
    7.0893    2.5184   -3.7711 H   0  0  0  0  0  0  0  0  0  0  0  0
    7.7637    3.6936   -1.2973 H   0  0  0  0  0  0  0  0  0  0  0  0
    9.5309    2.3524   -1.0650 H   0  0  0  0  0  0  0  0  0  0  0  0
   10.5383   -0.2129   -2.3990 H   0  0  0  0  0  0  0  0  0  0  0  0
   11.2711    1.3745   -2.5612 H   0  0  0  0  0  0  0  0  0  0  0  0
   10.8384    0.0851   -0.0660 H   0  0  0  0  0  0  0  0  0  0  0  0
    8.2911   -0.4470   -1.2394 H   0  0  0  0  0  0  0  0  0  0  0  0
    8.7544    0.9749    1.1385 H   0  0  0  0  0  0  0  0  0  0  0  0
    4.6382   -1.2076    1.7513 H   0  0  0  0  0  0  0  0  0  0  0  0
    3.2196   -1.2425   -0.7100 H   0  0  0  0  0  0  0  0  0  0  0  0
    2.1213    0.2256    0.7286 H   0  0  0  0  0  0  0  0  0  0  0  0
    2.4674   -1.6825    2.7903 H   0  0  0  0  0  0  0  0  0  0  0  0
    3.4398    0.4277    3.4820 H   0  0  0  0  0  0  0  0  0  0  0  0
    1.0529    1.3703    2.3696 H   0  0  0  0  0  0  0  0  0  0  0  0
  1  2  1  0  0  0  0
  1 24  1  0  0  0  0
  2 25  1  0  0  0  0
  2 26  1  0  0  0  0
  3  4  1  0  0  0  0
  3 22  1  0  0  0  0
  3  2  1  0  0  0  0
  3 27  1  6  0  0  0
  4  5  1  0  0  0  0
  5 18  1  0  0  0  0
  5  6  1  0  0  0  0
  5 28  1  6  0  0  0
  6  7  1  0  0  0  0
  7  8  1  0  0  0  0
  7 16  1  0  0  0  0
  7 29  1  1  0  0  0
  8  9  1  0  0  0  0
  8 10  1  0  0  0  0
  8 30  1  6  0  0  0
  9 31  1  0  0  0  0
 10 11  1  0  0  0  0
 10 12  1  0  0  0  0
 10 32  1  6  0  0  0
 11 33  1  0  0  0  0
 12 13  1  0  0  0  0
 13 16  1  0  0  0  0
 13 14  1  0  0  0  0
 13 34  1  1  0  0  0
 14 15  1  0  0  0  0
 14 35  1  0  0  0  0
 14 36  1  0  0  0  0
 15 37  1  0  0  0  0
 16 17  1  0  0  0  0
 16 38  1  6  0  0  0
 17 39  1  0  0  0  0
 18 19  1  0  0  0  0
 18 20  1  0  0  0  0
 18 40  1  1  0  0  0
 19 41  1  0  0  0  0
 20 21  1  0  0  0  0
 20 22  1  0  0  0  0
 20 42  1  6  0  0  0
 21 43  1  0  0  0  0
 22 23  1  0  0  0  0
 22 44  1  1  0  0  0
 23 45  1  0  0  0  0
M  END
$$$$
