


 31 32  0  0  0  0  0  0  0  0999 V2000
  -10.2457   -8.1643   -9.7930 O   0  0  0  0  0  0  0  0  0  0  0  0
   -9.6710  -11.6608   -9.0020 C   0  0  0  0  0  0  0  0  0  0  0  0
  -10.1855  -10.4895   -9.6547 O   0  0  0  0  0  0  0  0  0  0  0  0
   -9.7513   -9.2766   -9.0449 C   0  0  0  0  0  0  0  0  0  0  0  0
  -10.2840   -9.1890   -7.5964 C   0  0  0  0  0  0  0  0  0  0  0  0
   -9.8595   -7.9895   -6.9330 O   0  0  0  0  0  0  0  0  0  0  0  0
   -9.7982  -10.4285   -6.8143 C   0  0  0  0  0  0  0  0  0  0  0  0
  -10.3159  -10.4525   -5.4792 O   0  0  0  0  0  0  0  0  0  0  0  0
  -10.1730  -11.7230   -7.5528 C   0  0  0  0  0  0  0  0  0  0  0  0
   -9.6458  -12.8756   -6.8917 O   0  0  0  0  0  0  0  0  0  0  0  0
   -8.9079   -8.0550   -6.7453 H   0  0  0  0  0  0  0  0  0  0  0  0
  -11.2888  -10.4757   -5.5274 H   0  0  0  0  0  0  0  0  0  0  0  0
   -8.8271  -12.6265   -6.4281 H   0  0  0  0  0  0  0  0  0  0  0  0
  -10.6956  -12.4843  -11.0423 O   0  0  0  0  0  0  0  0  0  0  0  0
  -10.1413  -12.8918   -9.7890 C   0  0  0  0  0  0  0  0  0  0  0  0
  -11.0985  -13.2779  -11.4349 H   0  0  0  0  0  0  0  0  0  0  0  0
   -9.2339   -7.3256  -10.3956 C   0  0  0  0  0  0  0  0  0  0  0  0
   -9.6746   -5.8456  -10.4588 C   0  0  0  0  0  0  0  0  0  0  0  0
   -9.6131   -5.2329   -9.1599 O   0  0  0  0  0  0  0  0  0  0  0  0
   -8.8082   -5.0301  -11.4365 C   0  0  0  0  0  0  0  0  0  0  0  0
   -7.5345   -4.7252  -10.8728 O   0  0  0  0  0  0  0  0  0  0  0  0
   -8.6836   -5.6255  -12.7119 O   0  0  0  0  0  0  0  0  0  0  0  0
   -8.1319   -6.9395  -12.6782 C   0  0  0  0  0  0  0  0  0  0  0  0
   -8.9984   -7.8829  -11.8241 C   0  0  0  0  0  0  0  0  0  0  0  0
   -8.3856   -9.1829  -11.7888 O   0  0  0  0  0  0  0  0  0  0  0  0
   -8.7856   -4.7122   -9.1167 H   0  0  0  0  0  0  0  0  0  0  0  0
   -7.1455   -5.5333  -10.5036 H   0  0  0  0  0  0  0  0  0  0  0  0
   -7.7890   -9.2246  -11.0202 H   0  0  0  0  0  0  0  0  0  0  0  0
   -8.0058   -7.4369  -14.1287 C   0  0  0  0  0  0  0  0  0  0  0  0
   -6.6520   -7.5362  -14.5543 O   0  0  0  0  0  0  0  0  0  0  0  0
   -6.1784   -8.0558  -13.8710 H   0  0  0  0  0  0  0  0  0  0  0  0
 14 15  1  0
 14 16  1  0
  2  3  1  0
  2  9  1  0
  2 15  1  0
  3  4  1  0
  4  5  1  0
  4  1  1  0
  1 17  1  0
 17 18  1  0
 17 24  1  0
 18 19  1  0
 18 20  1  0
 19 26  1  0
 20 21  1  0
 20 22  1  0
 21 27  1  0
 22 23  1  0
 23 24  1  0
 23 29  1  0
 29 30  1  0
 30 31  1  0
 24 25  1  0
 25 28  1  0
  5  6  1  0
  5  7  1  0
  6 11  1  0
  7  8  1  0
  7  9  1  0
  8 12  1  0
  9 10  1  0
 10 13  1  0
M  END
> <minimizedAffinity>
-5.70745

> <CNNscore>
0.9022880793

> <CNNaffinity>
2.9861831665

> <CNN_VS>
2.6943974495

> <CNNaffinity_variance>
0.5465956330

$$$$



 31 32  0  0  0  0  0  0  0  0999 V2000
   -9.0444   -7.9847  -11.6654 O   0  0  0  0  0  0  0  0  0  0  0  0
   -9.4434  -10.8648   -9.4911 C   0  0  0  0  0  0  0  0  0  0  0  0
   -9.6007   -9.9918  -10.6206 O   0  0  0  0  0  0  0  0  0  0  0  0
   -8.8959   -8.7614  -10.4754 C   0  0  0  0  0  0  0  0  0  0  0  0
   -9.4594   -7.9638   -9.2771 C   0  0  0  0  0  0  0  0  0  0  0  0
   -8.7702   -6.7208   -9.0795 O   0  0  0  0  0  0  0  0  0  0  0  0
   -9.3542   -8.8368   -8.0078 C   0  0  0  0  0  0  0  0  0  0  0  0
   -9.9266   -8.1882   -6.8664 O   0  0  0  0  0  0  0  0  0  0  0  0
  -10.0165  -10.2057   -8.2288 C   0  0  0  0  0  0  0  0  0  0  0  0
   -9.8426  -11.0614   -7.0970 O   0  0  0  0  0  0  0  0  0  0  0  0
   -7.8795   -6.9071   -8.7376 H   0  0  0  0  0  0  0  0  0  0  0  0
  -10.8682   -8.0174   -7.0503 H   0  0  0  0  0  0  0  0  0  0  0  0
   -9.0116  -10.8261   -6.6483 H   0  0  0  0  0  0  0  0  0  0  0  0
  -10.9190  -12.0482  -11.0119 O   0  0  0  0  0  0  0  0  0  0  0  0
  -10.1788  -12.1772   -9.7955 C   0  0  0  0  0  0  0  0  0  0  0  0
  -11.4683  -12.8477  -11.0847 H   0  0  0  0  0  0  0  0  0  0  0  0
   -8.7033   -6.5856  -11.5372 C   0  0  0  0  0  0  0  0  0  0  0  0
   -9.8407   -5.6667  -12.0379 C   0  0  0  0  0  0  0  0  0  0  0  0
  -10.9292   -5.6349  -11.0997 O   0  0  0  0  0  0  0  0  0  0  0  0
   -9.3502   -4.2275  -12.2819 C   0  0  0  0  0  0  0  0  0  0  0  0
   -9.1887   -3.5180  -11.0557 O   0  0  0  0  0  0  0  0  0  0  0  0
   -8.1876   -4.1552  -13.0817 O   0  0  0  0  0  0  0  0  0  0  0  0
   -7.0804   -4.8773  -12.5479 C   0  0  0  0  0  0  0  0  0  0  0  0
   -7.4201   -6.3697  -12.3818 C   0  0  0  0  0  0  0  0  0  0  0  0
   -6.2904   -7.0490  -11.8080 O   0  0  0  0  0  0  0  0  0  0  0  0
  -10.8473   -4.8106  -10.5784 H   0  0  0  0  0  0  0  0  0  0  0  0
   -8.6779   -4.0615  -10.4357 H   0  0  0  0  0  0  0  0  0  0  0  0
   -6.3818   -7.0401  -10.8385 H   0  0  0  0  0  0  0  0  0  0  0  0
   -5.8806   -4.6660  -13.4876 C   0  0  0  0  0  0  0  0  0  0  0  0
   -4.6515   -4.5431  -12.7819 O   0  0  0  0  0  0  0  0  0  0  0  0
   -4.5990   -5.3078  -12.1707 H   0  0  0  0  0  0  0  0  0  0  0  0
 14 15  1  0
 14 16  1  0
  2  3  1  0
  2  9  1  0
  2 15  1  0
  3  4  1  0
  4  5  1  0
  4  1  1  0
  1 17  1  0
 17 18  1  0
 17 24  1  0
 18 19  1  0
 18 20  1  0
 19 26  1  0
 20 21  1  0
 20 22  1  0
 21 27  1  0
 22 23  1  0
 23 24  1  0
 23 29  1  0
 29 30  1  0
 30 31  1  0
 24 25  1  0
 25 28  1  0
  5  6  1  0
  5  7  1  0
  6 11  1  0
  7  8  1  0
  7  9  1  0
  8 12  1  0
  9 10  1  0
 10 13  1  0
M  END
> <minimizedAffinity>
-6.21033

> <CNNscore>
0.8946382999

> <CNNaffinity>
3.2418954372

> <CNN_VS>
2.9003238678

> <CNNaffinity_variance>
0.3418723047

$$$$



 31 32  0  0  0  0  0  0  0  0999 V2000
   -9.0824   -8.7975   -9.9936 O   0  0  0  0  0  0  0  0  0  0  0  0
  -10.5797   -7.0508  -12.8022 C   0  0  0  0  0  0  0  0  0  0  0  0
   -9.8415   -8.0341  -12.0600 O   0  0  0  0  0  0  0  0  0  0  0  0
   -9.7674   -7.7401  -10.6672 C   0  0  0  0  0  0  0  0  0  0  0  0
   -9.0005   -6.4168  -10.4430 C   0  0  0  0  0  0  0  0  0  0  0  0
   -8.9125   -6.0685   -9.0537 O   0  0  0  0  0  0  0  0  0  0  0  0
   -9.7115   -5.2932  -11.2280 C   0  0  0  0  0  0  0  0  0  0  0  0
   -9.0124   -4.0475  -11.1258 O   0  0  0  0  0  0  0  0  0  0  0  0
   -9.8881   -5.6839  -12.7036 C   0  0  0  0  0  0  0  0  0  0  0  0
  -10.6308   -4.6965  -13.4225 O   0  0  0  0  0  0  0  0  0  0  0  0
   -9.7917   -5.7936   -8.7432 H   0  0  0  0  0  0  0  0  0  0  0  0
   -8.1177   -4.1664  -11.4930 H   0  0  0  0  0  0  0  0  0  0  0  0
  -11.2416   -4.2523  -12.8086 H   0  0  0  0  0  0  0  0  0  0  0  0
   -9.6900   -6.8061  -15.0470 O   0  0  0  0  0  0  0  0  0  0  0  0
  -10.6552   -7.5128  -14.2639 C   0  0  0  0  0  0  0  0  0  0  0  0
   -9.8719   -7.0322  -15.9756 H   0  0  0  0  0  0  0  0  0  0  0  0
   -9.8837   -9.5578   -9.0607 C   0  0  0  0  0  0  0  0  0  0  0  0
   -9.5000   -9.2587   -7.5938 C   0  0  0  0  0  0  0  0  0  0  0  0
   -9.9888   -7.9702   -7.1849 O   0  0  0  0  0  0  0  0  0  0  0  0
  -10.0447  -10.3280   -6.6287 C   0  0  0  0  0  0  0  0  0  0  0  0
  -11.4413  -10.1572   -6.3975 O   0  0  0  0  0  0  0  0  0  0  0  0
   -9.7405  -11.6507   -7.0217 O   0  0  0  0  0  0  0  0  0  0  0  0
  -10.2263  -11.9880   -8.3188 C   0  0  0  0  0  0  0  0  0  0  0  0
   -9.6379  -11.0534   -9.3915 C   0  0  0  0  0  0  0  0  0  0  0  0
  -10.1827  -11.4064  -10.6743 O   0  0  0  0  0  0  0  0  0  0  0  0
  -10.8065   -8.1141   -6.6668 H   0  0  0  0  0  0  0  0  0  0  0  0
  -11.8966  -10.0537   -7.2477 H   0  0  0  0  0  0  0  0  0  0  0  0
  -10.9887  -10.8809  -10.8250 H   0  0  0  0  0  0  0  0  0  0  0  0
   -9.8720  -13.4608   -8.5884 C   0  0  0  0  0  0  0  0  0  0  0  0
   -9.5670  -14.1743   -7.3960 O   0  0  0  0  0  0  0  0  0  0  0  0
  -10.3044  -14.0090   -6.7714 H   0  0  0  0  0  0  0  0  0  0  0  0
 14 15  1  0
 14 16  1  0
  2  3  1  0
  2  9  1  0
  2 15  1  0
  3  4  1  0
  4  5  1  0
  4  1  1  0
  1 17  1  0
 17 18  1  0
 17 24  1  0
 18 19  1  0
 18 20  1  0
 19 26  1  0
 20 21  1  0
 20 22  1  0
 21 27  1  0
 22 23  1  0
 23 24  1  0
 23 29  1  0
 29 30  1  0
 30 31  1  0
 24 25  1  0
 25 28  1  0
  5  6  1  0
  5  7  1  0
  6 11  1  0
  7  8  1  0
  7  9  1  0
  8 12  1  0
  9 10  1  0
 10 13  1  0
M  END
> <minimizedAffinity>
-5.35868

> <CNNscore>
0.8913668394

> <CNNaffinity>
3.3765385151

> <CNN_VS>
3.0097343922

> <CNNaffinity_variance>
0.4726845324

$$$$



 31 32  0  0  0  0  0  0  0  0999 V2000
   -9.2169   -8.4592   -9.8280 O   0  0  0  0  0  0  0  0  0  0  0  0
  -11.1341   -5.4470   -9.1702 C   0  0  0  0  0  0  0  0  0  0  0  0
  -10.8301   -6.8286   -9.4181 O   0  0  0  0  0  0  0  0  0  0  0  0
   -9.4449   -7.0585   -9.6630 C   0  0  0  0  0  0  0  0  0  0  0  0
   -9.0018   -6.3191  -10.9462 C   0  0  0  0  0  0  0  0  0  0  0  0
   -7.6073   -6.5073  -11.2276 O   0  0  0  0  0  0  0  0  0  0  0  0
   -9.3123   -4.8154  -10.7836 C   0  0  0  0  0  0  0  0  0  0  0  0
   -8.9943   -4.0747  -11.9675 O   0  0  0  0  0  0  0  0  0  0  0  0
  -10.7848   -4.5990  -10.4011 C   0  0  0  0  0  0  0  0  0  0  0  0
  -11.0648   -3.2196  -10.1517 O   0  0  0  0  0  0  0  0  0  0  0  0
   -7.0859   -6.0112  -10.5741 H   0  0  0  0  0  0  0  0  0  0  0  0
   -9.5291   -4.4260  -12.7024 H   0  0  0  0  0  0  0  0  0  0  0  0
  -10.2564   -2.7877   -9.8241 H   0  0  0  0  0  0  0  0  0  0  0  0
  -13.3683   -5.0786  -10.0438 O   0  0  0  0  0  0  0  0  0  0  0  0
  -12.6305   -5.3376   -8.8468 C   0  0  0  0  0  0  0  0  0  0  0  0
  -14.2801   -4.8831   -9.7668 H   0  0  0  0  0  0  0  0  0  0  0  0
   -9.9749   -9.3173   -8.9451 C   0  0  0  0  0  0  0  0  0  0  0  0
   -9.5303   -9.1665   -7.4727 C   0  0  0  0  0  0  0  0  0  0  0  0
  -10.0062   -7.9305   -6.9139 O   0  0  0  0  0  0  0  0  0  0  0  0
  -10.0295  -10.3332   -6.6002 C   0  0  0  0  0  0  0  0  0  0  0  0
  -11.4156  -10.1982   -6.2944 O   0  0  0  0  0  0  0  0  0  0  0  0
   -9.7372  -11.6063   -7.1391 O   0  0  0  0  0  0  0  0  0  0  0  0
  -10.2765  -11.8132   -8.4424 C   0  0  0  0  0  0  0  0  0  0  0  0
   -9.7378  -10.7692   -9.4374 C   0  0  0  0  0  0  0  0  0  0  0  0
  -10.3353  -10.9937  -10.7256 O   0  0  0  0  0  0  0  0  0  0  0  0
  -10.8005   -8.1332   -6.3794 H   0  0  0  0  0  0  0  0  0  0  0  0
  -11.9071  -10.0121   -7.1097 H   0  0  0  0  0  0  0  0  0  0  0  0
  -11.1489  -10.4620  -10.7878 H   0  0  0  0  0  0  0  0  0  0  0  0
   -9.9285  -13.2479   -8.8759 C   0  0  0  0  0  0  0  0  0  0  0  0
   -9.5268  -14.0646   -7.7826 O   0  0  0  0  0  0  0  0  0  0  0  0
  -10.2165  -13.9715   -7.0921 H   0  0  0  0  0  0  0  0  0  0  0  0
 14 15  1  0
 14 16  1  0
  2  3  1  0
  2  9  1  0
  2 15  1  0
  3  4  1  0
  4  5  1  0
  4  1  1  0
  1 17  1  0
 17 18  1  0
 17 24  1  0
 18 19  1  0
 18 20  1  0
 19 26  1  0
 20 21  1  0
 20 22  1  0
 21 27  1  0
 22 23  1  0
 23 24  1  0
 23 29  1  0
 29 30  1  0
 30 31  1  0
 24 25  1  0
 25 28  1  0
  5  6  1  0
  5  7  1  0
  6 11  1  0
  7  8  1  0
  7  9  1  0
  8 12  1  0
  9 10  1  0
 10 13  1  0
M  END
> <minimizedAffinity>
-5.68018

> <CNNscore>
0.8514537811

> <CNNaffinity>
3.1087200642

> <CNN_VS>
2.6469314098

> <CNNaffinity_variance>
0.6437512040

$$$$



 31 32  0  0  0  0  0  0  0  0999 V2000
  -10.2752   -8.0623   -7.9300 O   0  0  0  0  0  0  0  0  0  0  0  0
   -9.6739  -11.2168   -9.6238 C   0  0  0  0  0  0  0  0  0  0  0  0
  -10.1909   -9.9042   -9.3546 O   0  0  0  0  0  0  0  0  0  0  0  0
   -9.7806   -9.3932   -8.0888 C   0  0  0  0  0  0  0  0  0  0  0  0
  -10.3380  -10.2792   -6.9515 C   0  0  0  0  0  0  0  0  0  0  0  0
   -9.9382   -9.8137   -5.6543 O   0  0  0  0  0  0  0  0  0  0  0  0
   -9.8512  -11.7284   -7.1687 C   0  0  0  0  0  0  0  0  0  0  0  0
  -10.3905  -12.6239   -6.1897 O   0  0  0  0  0  0  0  0  0  0  0  0
  -10.1990  -12.2162   -8.5837 C   0  0  0  0  0  0  0  0  0  0  0  0
   -9.6697  -13.5203   -8.8340 O   0  0  0  0  0  0  0  0  0  0  0  0
   -8.9892   -9.9887   -5.5373 H   0  0  0  0  0  0  0  0  0  0  0  0
  -11.3622  -12.6073   -6.2606 H   0  0  0  0  0  0  0  0  0  0  0  0
   -8.8616  -13.6397   -8.3049 H   0  0  0  0  0  0  0  0  0  0  0  0
  -11.5407  -11.7497  -11.0803 O   0  0  0  0  0  0  0  0  0  0  0  0
  -10.1172  -11.6247  -11.0355 C   0  0  0  0  0  0  0  0  0  0  0  0
  -11.7546  -12.1389  -11.9459 H   0  0  0  0  0  0  0  0  0  0  0  0
  -10.7154   -7.4169   -9.1466 C   0  0  0  0  0  0  0  0  0  0  0  0
  -11.5781   -8.3573  -10.0184 C   0  0  0  0  0  0  0  0  0  0  0  0
  -12.8923   -8.5187   -9.4587 O   0  0  0  0  0  0  0  0  0  0  0  0
  -11.7112   -7.8394  -11.4626 C   0  0  0  0  0  0  0  0  0  0  0  0
  -12.6377   -6.7586  -11.5444 O   0  0  0  0  0  0  0  0  0  0  0  0
  -10.4740   -7.5104  -12.0606 O   0  0  0  0  0  0  0  0  0  0  0  0
   -9.7353   -6.5257  -11.3417 C   0  0  0  0  0  0  0  0  0  0  0  0
   -9.4306   -6.9980   -9.9084 C   0  0  0  0  0  0  0  0  0  0  0  0
   -8.7187   -5.9612   -9.2119 O   0  0  0  0  0  0  0  0  0  0  0  0
  -13.4993   -7.9318   -9.9535 H   0  0  0  0  0  0  0  0  0  0  0  0
  -12.4312   -6.1066  -10.8567 H   0  0  0  0  0  0  0  0  0  0  0  0
   -9.3652   -5.3890   -8.7612 H   0  0  0  0  0  0  0  0  0  0  0  0
   -8.4481   -6.2302  -12.1312 C   0  0  0  0  0  0  0  0  0  0  0  0
   -7.3209   -6.9282  -11.6153 O   0  0  0  0  0  0  0  0  0  0  0  0
   -7.5817   -7.8702  -11.5407 H   0  0  0  0  0  0  0  0  0  0  0  0
 14 15  1  0
 14 16  1  0
  2  3  1  0
  2  9  1  0
  2 15  1  0
  3  4  1  0
  4  5  1  0
  4  1  1  0
  1 17  1  0
 17 18  1  0
 17 24  1  0
 18 19  1  0
 18 20  1  0
 19 26  1  0
 20 21  1  0
 20 22  1  0
 21 27  1  0
 22 23  1  0
 23 24  1  0
 23 29  1  0
 29 30  1  0
 30 31  1  0
 24 25  1  0
 25 28  1  0
  5  6  1  0
  5  7  1  0
  6 11  1  0
  7  8  1  0
  7  9  1  0
  8 12  1  0
  9 10  1  0
 10 13  1  0
M  END
> <minimizedAffinity>
-5.13302

> <CNNscore>
0.8451938033

> <CNNaffinity>
2.8446123600

> <CNN_VS>
2.4042487144

> <CNNaffinity_variance>
0.5820708871

$$$$



 31 32  0  0  0  0  0  0  0  0999 V2000
   -9.9874  -10.6455   -6.7688 O   0  0  0  0  0  0  0  0  0  0  0  0
  -12.7915  -11.6418   -4.6888 C   0  0  0  0  0  0  0  0  0  0  0  0
  -11.7032  -10.8609   -5.2071 O   0  0  0  0  0  0  0  0  0  0  0  0
  -11.0033  -11.5137   -6.2633 C   0  0  0  0  0  0  0  0  0  0  0  0
  -10.3460  -12.8124   -5.7428 C   0  0  0  0  0  0  0  0  0  0  0  0
   -9.6404  -13.5159   -6.7755 O   0  0  0  0  0  0  0  0  0  0  0  0
  -11.4435  -13.7156   -5.1396 C   0  0  0  0  0  0  0  0  0  0  0  0
  -10.8964  -14.9100   -4.5693 O   0  0  0  0  0  0  0  0  0  0  0  0
  -12.2637  -12.9522   -4.0881 C   0  0  0  0  0  0  0  0  0  0  0  0
  -13.3452  -13.7435   -3.5905 O   0  0  0  0  0  0  0  0  0  0  0  0
  -10.2873  -13.9037   -7.3888 H   0  0  0  0  0  0  0  0  0  0  0  0
  -10.2771  -14.6564   -3.8611 H   0  0  0  0  0  0  0  0  0  0  0  0
  -13.6284  -14.3633   -4.2854 H   0  0  0  0  0  0  0  0  0  0  0  0
  -12.9202  -11.0496   -2.3387 O   0  0  0  0  0  0  0  0  0  0  0  0
  -13.5102  -10.8088   -3.6186 C   0  0  0  0  0  0  0  0  0  0  0  0
  -13.4931  -10.6112   -1.6860 H   0  0  0  0  0  0  0  0  0  0  0  0
  -10.2379  -10.1008   -8.0845 C   0  0  0  0  0  0  0  0  0  0  0  0
   -9.6361  -10.9863   -9.1991 C   0  0  0  0  0  0  0  0  0  0  0  0
  -10.4155  -12.1794   -9.3876 O   0  0  0  0  0  0  0  0  0  0  0  0
   -9.5414  -10.2353  -10.5402 C   0  0  0  0  0  0  0  0  0  0  0  0
  -10.8153  -10.1390  -11.1736 O   0  0  0  0  0  0  0  0  0  0  0  0
   -8.9149   -8.9730  -10.4373 O   0  0  0  0  0  0  0  0  0  0  0  0
   -9.5560   -8.0894   -9.5205 C   0  0  0  0  0  0  0  0  0  0  0  0
   -9.5917   -8.6907   -8.1037 C   0  0  0  0  0  0  0  0  0  0  0  0
  -10.2777   -7.7839   -7.2240 O   0  0  0  0  0  0  0  0  0  0  0  0
  -10.9874  -12.0394  -10.1693 H   0  0  0  0  0  0  0  0  0  0  0  0
  -11.4691   -9.8203  -10.5320 H   0  0  0  0  0  0  0  0  0  0  0  0
  -11.2244   -8.0125   -7.2187 H   0  0  0  0  0  0  0  0  0  0  0  0
   -8.8039   -6.7475   -9.5525 C   0  0  0  0  0  0  0  0  0  0  0  0
   -9.5364   -5.6980   -8.9313 O   0  0  0  0  0  0  0  0  0  0  0  0
   -9.8072   -6.0267   -8.0483 H   0  0  0  0  0  0  0  0  0  0  0  0
 14 15  1  0
 14 16  1  0
  2  3  1  0
  2  9  1  0
  2 15  1  0
  3  4  1  0
  4  5  1  0
  4  1  1  0
  1 17  1  0
 17 18  1  0
 17 24  1  0
 18 19  1  0
 18 20  1  0
 19 26  1  0
 20 21  1  0
 20 22  1  0
 21 27  1  0
 22 23  1  0
 23 24  1  0
 23 29  1  0
 29 30  1  0
 30 31  1  0
 24 25  1  0
 25 28  1  0
  5  6  1  0
  5  7  1  0
  6 11  1  0
  7  8  1  0
  7  9  1  0
  8 12  1  0
  9 10  1  0
 10 13  1  0
M  END
> <minimizedAffinity>
-5.07910

> <CNNscore>
0.8217853308

> <CNNaffinity>
3.1267910004

> <CNN_VS>
2.5695509911

> <CNNaffinity_variance>
0.5162506104

$$$$



 31 32  0  0  0  0  0  0  0  0999 V2000
   -9.9259   -8.8333   -9.5190 O   0  0  0  0  0  0  0  0  0  0  0  0
  -10.4948  -11.7844   -7.4821 C   0  0  0  0  0  0  0  0  0  0  0  0
  -10.0270  -10.4860   -7.8796 O   0  0  0  0  0  0  0  0  0  0  0  0
  -10.3616  -10.1622   -9.2268 C   0  0  0  0  0  0  0  0  0  0  0  0
   -9.6702  -11.1464  -10.1978 C   0  0  0  0  0  0  0  0  0  0  0  0
   -9.9895  -10.8709  -11.5694 O   0  0  0  0  0  0  0  0  0  0  0  0
  -10.0967  -12.5846   -9.8321 C   0  0  0  0  0  0  0  0  0  0  0  0
   -9.4355  -13.5597  -10.6465 O   0  0  0  0  0  0  0  0  0  0  0  0
   -9.8374  -12.8708   -8.3447 C   0  0  0  0  0  0  0  0  0  0  0  0
  -10.3163  -14.1639   -7.9679 O   0  0  0  0  0  0  0  0  0  0  0  0
  -10.9158  -11.1173  -11.7312 H   0  0  0  0  0  0  0  0  0  0  0  0
   -8.4747  -13.4746  -10.5083 H   0  0  0  0  0  0  0  0  0  0  0  0
  -11.0726  -14.3976   -8.5343 H   0  0  0  0  0  0  0  0  0  0  0  0
  -11.0092  -12.9690   -5.4272 O   0  0  0  0  0  0  0  0  0  0  0  0
  -10.1443  -11.9859   -6.0014 C   0  0  0  0  0  0  0  0  0  0  0  0
  -10.8393  -12.9577   -4.4694 H   0  0  0  0  0  0  0  0  0  0  0  0
  -10.9797   -7.8526   -9.6541 C   0  0  0  0  0  0  0  0  0  0  0  0
  -11.1954   -7.4375  -11.1271 C   0  0  0  0  0  0  0  0  0  0  0  0
  -11.8690   -8.4732  -11.8618 O   0  0  0  0  0  0  0  0  0  0  0  0
  -12.0081   -6.1345  -11.2428 C   0  0  0  0  0  0  0  0  0  0  0  0
  -13.3952   -6.3637  -11.0053 O   0  0  0  0  0  0  0  0  0  0  0  0
  -11.5093   -5.0848  -10.4392 O   0  0  0  0  0  0  0  0  0  0  0  0
  -11.4501   -5.4054   -9.0514 C   0  0  0  0  0  0  0  0  0  0  0  0
  -10.5494   -6.6290   -8.8031 C   0  0  0  0  0  0  0  0  0  0  0  0
  -10.5493   -6.9369   -7.3988 O   0  0  0  0  0  0  0  0  0  0  0  0
  -12.8133   -8.2242  -11.9270 H   0  0  0  0  0  0  0  0  0  0  0  0
  -13.4999   -6.8809  -10.1915 H   0  0  0  0  0  0  0  0  0  0  0  0
  -11.2646   -7.5732   -7.2200 H   0  0  0  0  0  0  0  0  0  0  0  0
  -10.9439   -4.1619   -8.2998 C   0  0  0  0  0  0  0  0  0  0  0  0
  -11.9620   -3.1856   -8.1151 O   0  0  0  0  0  0  0  0  0  0  0  0
  -12.7313   -3.6503   -7.7236 H   0  0  0  0  0  0  0  0  0  0  0  0
 14 15  1  0
 14 16  1  0
  2  3  1  0
  2  9  1  0
  2 15  1  0
  3  4  1  0
  4  5  1  0
  4  1  1  0
  1 17  1  0
 17 18  1  0
 17 24  1  0
 18 19  1  0
 18 20  1  0
 19 26  1  0
 20 21  1  0
 20 22  1  0
 21 27  1  0
 22 23  1  0
 23 24  1  0
 23 29  1  0
 29 30  1  0
 30 31  1  0
 24 25  1  0
 25 28  1  0
  5  6  1  0
  5  7  1  0
  6 11  1  0
  7  8  1  0
  7  9  1  0
  8 12  1  0
  9 10  1  0
 10 13  1  0
M  END
> <minimizedAffinity>
-4.72370

> <CNNscore>
0.8092876077

> <CNNaffinity>
2.9195010662

> <CNN_VS>
2.3627159595

> <CNNaffinity_variance>
0.5198235512

$$$$



 31 32  0  0  0  0  0  0  0  0999 V2000
   -9.1583   -8.0981   -8.6386 O   0  0  0  0  0  0  0  0  0  0  0  0
   -9.7158  -11.6817   -8.8078 C   0  0  0  0  0  0  0  0  0  0  0  0
   -9.7217  -10.2939   -9.1775 O   0  0  0  0  0  0  0  0  0  0  0  0
   -9.1826   -9.4463   -8.1663 C   0  0  0  0  0  0  0  0  0  0  0  0
  -10.0528   -9.5200   -6.8908 C   0  0  0  0  0  0  0  0  0  0  0  0
   -9.5408   -8.6936   -5.8353 O   0  0  0  0  0  0  0  0  0  0  0  0
  -10.1262  -10.9905   -6.4256 C   0  0  0  0  0  0  0  0  0  0  0  0
  -10.9792  -11.1467   -5.2859 O   0  0  0  0  0  0  0  0  0  0  0  0
  -10.5951  -11.9034   -7.5693 C   0  0  0  0  0  0  0  0  0  0  0  0
  -10.5751  -13.2798   -7.1838 O   0  0  0  0  0  0  0  0  0  0  0  0
   -8.7251   -9.0947   -5.4907 H   0  0  0  0  0  0  0  0  0  0  0  0
  -11.8752  -10.8517   -5.5302 H   0  0  0  0  0  0  0  0  0  0  0  0
   -9.8798  -13.4101   -6.5153 H   0  0  0  0  0  0  0  0  0  0  0  0
   -9.9540  -11.8129  -11.2196 O   0  0  0  0  0  0  0  0  0  0  0  0
  -10.2443  -12.4953   -9.9972 C   0  0  0  0  0  0  0  0  0  0  0  0
  -10.4252  -12.2948  -11.9211 H   0  0  0  0  0  0  0  0  0  0  0  0
  -10.4107   -7.6055   -9.1672 C   0  0  0  0  0  0  0  0  0  0  0  0
  -10.4040   -7.5536  -10.7118 C   0  0  0  0  0  0  0  0  0  0  0  0
  -10.5208   -8.8719  -11.2729 O   0  0  0  0  0  0  0  0  0  0  0  0
  -11.5429   -6.6748  -11.2613 C   0  0  0  0  0  0  0  0  0  0  0  0
  -12.7980   -7.3483  -11.1951 O   0  0  0  0  0  0  0  0  0  0  0  0
  -11.6070   -5.3955  -10.6648 O   0  0  0  0  0  0  0  0  0  0  0  0
  -11.7684   -5.4321   -9.2489 C   0  0  0  0  0  0  0  0  0  0  0  0
  -10.6045   -6.1837   -8.5775 C   0  0  0  0  0  0  0  0  0  0  0  0
  -10.8281   -6.2273   -7.1580 O   0  0  0  0  0  0  0  0  0  0  0  0
  -11.4533   -8.9978  -11.5422 H   0  0  0  0  0  0  0  0  0  0  0  0
  -12.9148   -7.7220  -10.3077 H   0  0  0  0  0  0  0  0  0  0  0  0
  -11.3215   -7.0396   -6.9458 H   0  0  0  0  0  0  0  0  0  0  0  0
  -11.8760   -3.9815   -8.7474 C   0  0  0  0  0  0  0  0  0  0  0  0
  -12.3057   -3.9041   -7.3935 O   0  0  0  0  0  0  0  0  0  0  0  0
  -11.7254   -4.5031   -6.8782 H   0  0  0  0  0  0  0  0  0  0  0  0
 14 15  1  0
 14 16  1  0
  2  3  1  0
  2  9  1  0
  2 15  1  0
  3  4  1  0
  4  5  1  0
  4  1  1  0
  1 17  1  0
 17 18  1  0
 17 24  1  0
 18 19  1  0
 18 20  1  0
 19 26  1  0
 20 21  1  0
 20 22  1  0
 21 27  1  0
 22 23  1  0
 23 24  1  0
 23 29  1  0
 29 30  1  0
 30 31  1  0
 24 25  1  0
 25 28  1  0
  5  6  1  0
  5  7  1  0
  6 11  1  0
  7  8  1  0
  7  9  1  0
  8 12  1  0
  9 10  1  0
 10 13  1  0
M  END
> <minimizedAffinity>
-5.54788

> <CNNscore>
0.7887146473

> <CNNaffinity>
2.8498046398

> <CNN_VS>
2.2476825714

> <CNNaffinity_variance>
0.7178454995

$$$$



 31 32  0  0  0  0  0  0  0  0999 V2000
   -9.4582   -8.4149  -10.5224 O   0  0  0  0  0  0  0  0  0  0  0  0
  -10.9340  -11.1673   -8.6710 C   0  0  0  0  0  0  0  0  0  0  0  0
  -10.7892  -10.1041   -9.6256 O   0  0  0  0  0  0  0  0  0  0  0  0
   -9.5544   -9.4039   -9.4958 C   0  0  0  0  0  0  0  0  0  0  0  0
   -9.4788   -8.7104   -8.1164 C   0  0  0  0  0  0  0  0  0  0  0  0
   -8.2440   -8.0032   -7.9308 O   0  0  0  0  0  0  0  0  0  0  0  0
   -9.6492   -9.7789   -7.0148 C   0  0  0  0  0  0  0  0  0  0  0  0
   -9.6628   -9.1974   -5.7061 O   0  0  0  0  0  0  0  0  0  0  0  0
  -10.9265  -10.6020   -7.2439 C   0  0  0  0  0  0  0  0  0  0  0  0
  -11.0482  -11.6585   -6.2886 O   0  0  0  0  0  0  0  0  0  0  0  0
   -7.5263   -8.6493   -7.8199 H   0  0  0  0  0  0  0  0  0  0  0  0
  -10.4104   -8.5744   -5.6547 H   0  0  0  0  0  0  0  0  0  0  0  0
  -10.1578  -11.9370   -6.0111 H   0  0  0  0  0  0  0  0  0  0  0  0
  -13.2985  -11.3355   -8.1502 O   0  0  0  0  0  0  0  0  0  0  0  0
  -12.2573  -11.8901   -8.9578 C   0  0  0  0  0  0  0  0  0  0  0  0
  -14.0730  -11.9124   -8.2672 H   0  0  0  0  0  0  0  0  0  0  0  0
  -10.4761   -7.3887  -10.4898 C   0  0  0  0  0  0  0  0  0  0  0  0
  -11.4918   -7.5474  -11.6439 C   0  0  0  0  0  0  0  0  0  0  0  0
  -12.3869   -8.6445  -11.3964 O   0  0  0  0  0  0  0  0  0  0  0  0
  -12.3197   -6.2670  -11.8597 C   0  0  0  0  0  0  0  0  0  0  0  0
  -13.3302   -6.1268  -10.8635 O   0  0  0  0  0  0  0  0  0  0  0  0
  -11.5334   -5.0983  -11.9711 O   0  0  0  0  0  0  0  0  0  0  0  0
  -10.7014   -4.8587  -10.8386 C   0  0  0  0  0  0  0  0  0  0  0  0
   -9.7326   -6.0320  -10.6043 C   0  0  0  0  0  0  0  0  0  0  0  0
   -8.9416   -5.7636   -9.4342 O   0  0  0  0  0  0  0  0  0  0  0  0
  -13.2263   -8.2717  -11.0583 H   0  0  0  0  0  0  0  0  0  0  0  0
  -12.9364   -6.2578   -9.9868 H   0  0  0  0  0  0  0  0  0  0  0  0
   -9.3970   -6.1371   -8.6587 H   0  0  0  0  0  0  0  0  0  0  0  0
   -9.9504   -3.5367  -11.0747 C   0  0  0  0  0  0  0  0  0  0  0  0
  -10.8060   -2.4029  -10.9952 O   0  0  0  0  0  0  0  0  0  0  0  0
  -11.3004   -2.4806  -10.1522 H   0  0  0  0  0  0  0  0  0  0  0  0
 14 15  1  0
 14 16  1  0
  2  3  1  0
  2  9  1  0
  2 15  1  0
  3  4  1  0
  4  5  1  0
  4  1  1  0
  1 17  1  0
 17 18  1  0
 17 24  1  0
 18 19  1  0
 18 20  1  0
 19 26  1  0
 20 21  1  0
 20 22  1  0
 21 27  1  0
 22 23  1  0
 23 24  1  0
 23 29  1  0
 29 30  1  0
 30 31  1  0
 24 25  1  0
 25 28  1  0
  5  6  1  0
  5  7  1  0
  6 11  1  0
  7  8  1  0
  7  9  1  0
  8 12  1  0
  9 10  1  0
 10 13  1  0
M  END
> <minimizedAffinity>
-5.31294

> <CNNscore>
0.7588073611

> <CNNaffinity>
2.9937021732

> <CNN_VS>
2.2716431618

> <CNNaffinity_variance>
0.5253202319

$$$$



 31 32  0  0  0  0  0  0  0  0999 V2000
   -9.6615  -10.6780   -7.7290 O   0  0  0  0  0  0  0  0  0  0  0  0
   -9.4994   -9.2276  -11.0534 C   0  0  0  0  0  0  0  0  0  0  0  0
   -9.2490  -10.1147   -9.9520 O   0  0  0  0  0  0  0  0  0  0  0  0
   -9.9015   -9.7093   -8.7514 C   0  0  0  0  0  0  0  0  0  0  0  0
   -9.3578   -8.3387   -8.2873 C   0  0  0  0  0  0  0  0  0  0  0  0
   -9.9966   -7.8788   -7.0874 O   0  0  0  0  0  0  0  0  0  0  0  0
   -9.5628   -7.3139   -9.4240 C   0  0  0  0  0  0  0  0  0  0  0  0
   -9.0146   -6.0332   -9.0919 O   0  0  0  0  0  0  0  0  0  0  0  0
   -8.9557   -7.8269  -10.7392 C   0  0  0  0  0  0  0  0  0  0  0  0
   -9.2220   -6.9341  -11.8233 O   0  0  0  0  0  0  0  0  0  0  0  0
  -10.9100   -7.6210   -7.2976 H   0  0  0  0  0  0  0  0  0  0  0  0
   -8.0586   -6.1394   -8.9363 H   0  0  0  0  0  0  0  0  0  0  0  0
  -10.0612   -6.4716  -11.6523 H   0  0  0  0  0  0  0  0  0  0  0  0
   -7.5341   -9.1918  -12.4771 O   0  0  0  0  0  0  0  0  0  0  0  0
   -8.8128   -9.8058  -12.2984 C   0  0  0  0  0  0  0  0  0  0  0  0
   -7.2063   -9.4883  -13.3437 H   0  0  0  0  0  0  0  0  0  0  0  0
  -10.6557  -11.7222   -7.6209 C   0  0  0  0  0  0  0  0  0  0  0  0
  -11.2539  -11.8034   -6.1981 C   0  0  0  0  0  0  0  0  0  0  0  0
  -12.1623  -10.7156   -5.9574 O   0  0  0  0  0  0  0  0  0  0  0  0
  -11.9942  -13.1330   -5.9620 C   0  0  0  0  0  0  0  0  0  0  0  0
  -13.2690  -13.1393   -6.6008 O   0  0  0  0  0  0  0  0  0  0  0  0
  -11.2332  -14.2720   -6.3083 O   0  0  0  0  0  0  0  0  0  0  0  0
  -10.8038  -14.2813   -7.6676 C   0  0  0  0  0  0  0  0  0  0  0  0
   -9.9376  -13.0484   -7.9838 C   0  0  0  0  0  0  0  0  0  0  0  0
   -9.5594  -13.0813   -9.3705 O   0  0  0  0  0  0  0  0  0  0  0  0
  -13.0718  -11.0572   -6.0759 H   0  0  0  0  0  0  0  0  0  0  0  0
  -13.1686  -12.8446   -7.5194 H   0  0  0  0  0  0  0  0  0  0  0  0
  -10.2291  -12.5982   -9.8868 H   0  0  0  0  0  0  0  0  0  0  0  0
  -10.0397  -15.5941   -7.9133 C   0  0  0  0  0  0  0  0  0  0  0  0
   -8.6664  -15.4999   -7.5545 O   0  0  0  0  0  0  0  0  0  0  0  0
   -8.6365  -15.1405   -6.6429 H   0  0  0  0  0  0  0  0  0  0  0  0
 14 15  1  0
 14 16  1  0
  2  3  1  0
  2  9  1  0
  2 15  1  0
  3  4  1  0
  4  5  1  0
  4  1  1  0
  1 17  1  0
 17 18  1  0
 17 24  1  0
 18 19  1  0
 18 20  1  0
 19 26  1  0
 20 21  1  0
 20 22  1  0
 21 27  1  0
 22 23  1  0
 23 24  1  0
 23 29  1  0
 29 30  1  0
 30 31  1  0
 24 25  1  0
 25 28  1  0
  5  6  1  0
  5  7  1  0
  6 11  1  0
  7  8  1  0
  7  9  1  0
  8 12  1  0
  9 10  1  0
 10 13  1  0
M  END
> <minimizedAffinity>
-5.08975

> <CNNscore>
0.7286648750

> <CNNaffinity>
3.5471560955

> <CNN_VS>
2.5846879482

> <CNNaffinity_variance>
0.8005959988

$$$$



 31 32  0  0  0  0  0  0  0  0999 V2000
  -10.2026   -7.7205  -11.3332 O   0  0  0  0  0  0  0  0  0  0  0  0
   -9.8878  -10.7819   -9.4071 C   0  0  0  0  0  0  0  0  0  0  0  0
  -10.3734   -9.8367  -10.3732 O   0  0  0  0  0  0  0  0  0  0  0  0
   -9.7144   -8.5751  -10.2976 C   0  0  0  0  0  0  0  0  0  0  0  0
   -9.9858   -7.9146   -8.9266 C   0  0  0  0  0  0  0  0  0  0  0  0
   -9.3289   -6.6456   -8.7953 O   0  0  0  0  0  0  0  0  0  0  0  0
   -9.5143   -8.8742   -7.8126 C   0  0  0  0  0  0  0  0  0  0  0  0
   -9.8019   -8.3581   -6.5080 O   0  0  0  0  0  0  0  0  0  0  0  0
  -10.1453  -10.2647   -7.9849 C   0  0  0  0  0  0  0  0  0  0  0  0
   -9.6439  -11.1917   -7.0191 O   0  0  0  0  0  0  0  0  0  0  0  0
   -8.3722   -6.7953   -8.7095 H   0  0  0  0  0  0  0  0  0  0  0  0
  -10.7660   -8.2397   -6.4303 H   0  0  0  0  0  0  0  0  0  0  0  0
   -8.7372  -10.9345   -6.7760 H   0  0  0  0  0  0  0  0  0  0  0  0
   -9.8369  -13.1889   -9.1003 O   0  0  0  0  0  0  0  0  0  0  0  0
  -10.6137  -12.1148   -9.6359 C   0  0  0  0  0  0  0  0  0  0  0  0
  -10.2687  -14.0109   -9.3906 H   0  0  0  0  0  0  0  0  0  0  0  0
   -9.1857   -7.0695  -12.1285 C   0  0  0  0  0  0  0  0  0  0  0  0
   -7.7800   -7.6508  -11.8550 C   0  0  0  0  0  0  0  0  0  0  0  0
   -7.6296   -8.9449  -12.4624 O   0  0  0  0  0  0  0  0  0  0  0  0
   -6.6649   -6.7238  -12.3734 C   0  0  0  0  0  0  0  0  0  0  0  0
   -6.5302   -6.8139  -13.7900 O   0  0  0  0  0  0  0  0  0  0  0  0
   -6.8019   -5.3834  -11.9481 O   0  0  0  0  0  0  0  0  0  0  0  0
   -8.0383   -4.7856  -12.3303 C   0  0  0  0  0  0  0  0  0  0  0  0
   -9.2332   -5.5653  -11.7520 C   0  0  0  0  0  0  0  0  0  0  0  0
  -10.4554   -4.9495  -12.1925 O   0  0  0  0  0  0  0  0  0  0  0  0
   -7.1310   -8.8250  -13.2959 H   0  0  0  0  0  0  0  0  0  0  0  0
   -7.4045   -6.7289  -14.2012 H   0  0  0  0  0  0  0  0  0  0  0  0
  -10.7331   -5.3709  -13.0254 H   0  0  0  0  0  0  0  0  0  0  0  0
   -8.0248   -3.3235  -11.8511 C   0  0  0  0  0  0  0  0  0  0  0  0
   -7.8916   -2.4000  -12.9249 O   0  0  0  0  0  0  0  0  0  0  0  0
   -8.5741   -2.6368  -13.5876 H   0  0  0  0  0  0  0  0  0  0  0  0
 14 15  1  0
 14 16  1  0
  2  3  1  0
  2  9  1  0
  2 15  1  0
  3  4  1  0
  4  5  1  0
  4  1  1  0
  1 17  1  0
 17 18  1  0
 17 24  1  0
 18 19  1  0
 18 20  1  0
 19 26  1  0
 20 21  1  0
 20 22  1  0
 21 27  1  0
 22 23  1  0
 23 24  1  0
 23 29  1  0
 29 30  1  0
 30 31  1  0
 24 25  1  0
 25 28  1  0
  5  6  1  0
  5  7  1  0
  6 11  1  0
  7  8  1  0
  7  9  1  0
  8 12  1  0
  9 10  1  0
 10 13  1  0
M  END
> <minimizedAffinity>
-5.17157

> <CNNscore>
0.6981003284

> <CNNaffinity>
3.0295925140

> <CNN_VS>
2.1149594784

> <CNNaffinity_variance>
0.6323092580

$$$$



 31 32  0  0  0  0  0  0  0  0999 V2000
   -9.4181   -8.9719   -9.1479 O   0  0  0  0  0  0  0  0  0  0  0  0
  -10.7513   -5.6126   -8.8021 C   0  0  0  0  0  0  0  0  0  0  0  0
  -10.6961   -7.0471   -8.8462 O   0  0  0  0  0  0  0  0  0  0  0  0
   -9.4069   -7.5440   -9.1965 C   0  0  0  0  0  0  0  0  0  0  0  0
   -9.0318   -7.0893  -10.6254 C   0  0  0  0  0  0  0  0  0  0  0  0
   -7.7321   -7.5525  -11.0194 O   0  0  0  0  0  0  0  0  0  0  0  0
   -9.0862   -5.5473  -10.6847 C   0  0  0  0  0  0  0  0  0  0  0  0
   -8.8202   -5.0552  -12.0031 O   0  0  0  0  0  0  0  0  0  0  0  0
  -10.4446   -5.0282  -10.1880 C   0  0  0  0  0  0  0  0  0  0  0  0
  -10.4764   -3.5997  -10.1446 O   0  0  0  0  0  0  0  0  0  0  0  0
   -7.0591   -7.0619  -10.5181 H   0  0  0  0  0  0  0  0  0  0  0  0
   -9.4952   -5.4146  -12.6071 H   0  0  0  0  0  0  0  0  0  0  0  0
   -9.5755   -3.2689   -9.9828 H   0  0  0  0  0  0  0  0  0  0  0  0
  -12.0992   -3.9439   -7.6666 O   0  0  0  0  0  0  0  0  0  0  0  0
  -12.1572   -5.2023   -8.3428 C   0  0  0  0  0  0  0  0  0  0  0  0
  -12.9803   -3.7993   -7.2806 H   0  0  0  0  0  0  0  0  0  0  0  0
  -10.3842   -9.5523   -8.2422 C   0  0  0  0  0  0  0  0  0  0  0  0
   -9.7287  -10.0226   -6.9240 C   0  0  0  0  0  0  0  0  0  0  0  0
   -9.3992   -8.9038   -6.0837 O   0  0  0  0  0  0  0  0  0  0  0  0
  -10.6417  -10.9834   -6.1401 C   0  0  0  0  0  0  0  0  0  0  0  0
  -11.6908  -10.2803   -5.4781 O   0  0  0  0  0  0  0  0  0  0  0  0
  -11.1420  -12.0497   -6.9207 O   0  0  0  0  0  0  0  0  0  0  0  0
  -11.8831  -11.6245   -8.0618 C   0  0  0  0  0  0  0  0  0  0  0  0
  -11.0184  -10.7536   -8.9913 C   0  0  0  0  0  0  0  0  0  0  0  0
  -11.8156  -10.3189  -10.1060 O   0  0  0  0  0  0  0  0  0  0  0  0
  -10.0985   -8.8282   -5.4031 H   0  0  0  0  0  0  0  0  0  0  0  0
  -12.1173   -9.6760   -6.1055 H   0  0  0  0  0  0  0  0  0  0  0  0
  -12.2262   -9.4651   -9.8803 H   0  0  0  0  0  0  0  0  0  0  0  0
  -12.4071  -12.8802   -8.7802 C   0  0  0  0  0  0  0  0  0  0  0  0
  -13.5569  -12.6130   -9.5742 O   0  0  0  0  0  0  0  0  0  0  0  0
  -13.3361  -11.8446  -10.1416 H   0  0  0  0  0  0  0  0  0  0  0  0
 14 15  1  0
 14 16  1  0
  2  3  1  0
  2  9  1  0
  2 15  1  0
  3  4  1  0
  4  5  1  0
  4  1  1  0
  1 17  1  0
 17 18  1  0
 17 24  1  0
 18 19  1  0
 18 20  1  0
 19 26  1  0
 20 21  1  0
 20 22  1  0
 21 27  1  0
 22 23  1  0
 23 24  1  0
 23 29  1  0
 29 30  1  0
 30 31  1  0
 24 25  1  0
 25 28  1  0
  5  6  1  0
  5  7  1  0
  6 11  1  0
  7  8  1  0
  7  9  1  0
  8 12  1  0
  9 10  1  0
 10 13  1  0
M  END
> <minimizedAffinity>
-5.28118

> <CNNscore>
0.6980631948

> <CNNaffinity>
2.9462766647

> <CNN_VS>
2.0566873550

> <CNNaffinity_variance>
0.6260116100

$$$$



 31 32  0  0  0  0  0  0  0  0999 V2000
  -10.5338   -8.4611  -10.1441 O   0  0  0  0  0  0  0  0  0  0  0  0
   -9.8660  -11.8377   -8.9892 C   0  0  0  0  0  0  0  0  0  0  0  0
  -10.4454  -10.7524   -9.7301 O   0  0  0  0  0  0  0  0  0  0  0  0
   -9.9662   -9.4760   -9.3140 C   0  0  0  0  0  0  0  0  0  0  0  0
  -10.3667   -9.2107   -7.8448 C   0  0  0  0  0  0  0  0  0  0  0  0
   -9.8924   -7.9411   -7.3731 O   0  0  0  0  0  0  0  0  0  0  0  0
   -9.8038  -10.3479   -6.9649 C   0  0  0  0  0  0  0  0  0  0  0  0
  -10.1987  -10.2071   -5.5955 O   0  0  0  0  0  0  0  0  0  0  0  0
  -10.2348  -11.7210   -7.5037 C   0  0  0  0  0  0  0  0  0  0  0  0
   -9.6421  -12.7868   -6.7578 O   0  0  0  0  0  0  0  0  0  0  0  0
   -8.9273   -7.9873   -7.2657 H   0  0  0  0  0  0  0  0  0  0  0  0
  -11.1719  -10.2319   -5.5524 H   0  0  0  0  0  0  0  0  0  0  0  0
   -8.7866  -12.4865   -6.4038 H   0  0  0  0  0  0  0  0  0  0  0  0
   -9.3991  -13.7529  -10.4049 O   0  0  0  0  0  0  0  0  0  0  0  0
  -10.3969  -13.1533   -9.5749 C   0  0  0  0  0  0  0  0  0  0  0  0
   -9.8296  -14.5005  -10.8546 H   0  0  0  0  0  0  0  0  0  0  0  0
  -10.1825   -7.1041   -9.7894 C   0  0  0  0  0  0  0  0  0  0  0  0
  -11.4079   -6.1631   -9.8257 C   0  0  0  0  0  0  0  0  0  0  0  0
  -12.2656   -6.3889   -8.6944 O   0  0  0  0  0  0  0  0  0  0  0  0
  -10.9923   -4.6805   -9.8485 C   0  0  0  0  0  0  0  0  0  0  0  0
  -10.5719   -4.2381   -8.5598 O   0  0  0  0  0  0  0  0  0  0  0  0
  -10.0329   -4.3783  -10.8408 O   0  0  0  0  0  0  0  0  0  0  0  0
   -8.8310   -5.1359  -10.7238 C   0  0  0  0  0  0  0  0  0  0  0  0
   -9.1161   -6.6459  -10.8187 C   0  0  0  0  0  0  0  0  0  0  0  0
   -7.8838   -7.3690  -10.6591 O   0  0  0  0  0  0  0  0  0  0  0  0
  -12.0774   -5.6900   -8.0356 H   0  0  0  0  0  0  0  0  0  0  0  0
   -9.9343   -4.8719   -8.1956 H   0  0  0  0  0  0  0  0  0  0  0  0
   -7.7614   -7.5698   -9.7140 H   0  0  0  0  0  0  0  0  0  0  0  0
   -7.8667   -4.6665  -11.8271 C   0  0  0  0  0  0  0  0  0  0  0  0
   -7.2521   -3.4211  -11.5192 O   0  0  0  0  0  0  0  0  0  0  0  0
   -6.8768   -3.5065  -10.6175 H   0  0  0  0  0  0  0  0  0  0  0  0
 14 15  1  0
 14 16  1  0
  2  3  1  0
  2  9  1  0
  2 15  1  0
  3  4  1  0
  4  5  1  0
  4  1  1  0
  1 17  1  0
 17 18  1  0
 17 24  1  0
 18 19  1  0
 18 20  1  0
 19 26  1  0
 20 21  1  0
 20 22  1  0
 21 27  1  0
 22 23  1  0
 23 24  1  0
 23 29  1  0
 29 30  1  0
 30 31  1  0
 24 25  1  0
 25 28  1  0
  5  6  1  0
  5  7  1  0
  6 11  1  0
  7  8  1  0
  7  9  1  0
  8 12  1  0
  9 10  1  0
 10 13  1  0
M  END
> <minimizedAffinity>
-5.88990

> <CNNscore>
0.6959018707

> <CNNaffinity>
2.8318817616

> <CNN_VS>
1.9707118273

> <CNNaffinity_variance>
0.7075187564

$$$$



 31 32  0  0  0  0  0  0  0  0999 V2000
   -9.0789   -8.5362  -11.8159 O   0  0  0  0  0  0  0  0  0  0  0  0
  -10.0886   -9.6148   -8.4995 C   0  0  0  0  0  0  0  0  0  0  0  0
   -9.4030   -8.8959   -9.5366 O   0  0  0  0  0  0  0  0  0  0  0  0
   -9.7451   -9.3457  -10.8452 C   0  0  0  0  0  0  0  0  0  0  0  0
   -9.3127  -10.8180  -11.0316 C   0  0  0  0  0  0  0  0  0  0  0  0
   -9.6505  -11.3231  -12.3316 O   0  0  0  0  0  0  0  0  0  0  0  0
   -9.9867  -11.6744   -9.9378 C   0  0  0  0  0  0  0  0  0  0  0  0
   -9.5732  -13.0440  -10.0033 O   0  0  0  0  0  0  0  0  0  0  0  0
   -9.7031  -11.1000   -8.5410 C   0  0  0  0  0  0  0  0  0  0  0  0
  -10.3999  -11.8244   -7.5245 O   0  0  0  0  0  0  0  0  0  0  0  0
  -10.6147  -11.4361  -12.3831 H   0  0  0  0  0  0  0  0  0  0  0  0
   -8.6077  -13.0797   -9.8766 H   0  0  0  0  0  0  0  0  0  0  0  0
  -11.2180  -12.1914   -7.9031 H   0  0  0  0  0  0  0  0  0  0  0  0
  -10.1646   -7.6436   -7.0855 O   0  0  0  0  0  0  0  0  0  0  0  0
   -9.6998   -8.9942   -7.1506 C   0  0  0  0  0  0  0  0  0  0  0  0
   -9.7771   -7.2589   -6.2804 H   0  0  0  0  0  0  0  0  0  0  0  0
   -8.8347   -7.1680  -11.4174 C   0  0  0  0  0  0  0  0  0  0  0  0
  -10.0383   -6.2517  -11.7340 C   0  0  0  0  0  0  0  0  0  0  0  0
  -11.1168   -6.4789  -10.8112 O   0  0  0  0  0  0  0  0  0  0  0  0
   -9.6517   -4.7616  -11.6923 C   0  0  0  0  0  0  0  0  0  0  0  0
   -9.5274   -4.2938  -10.3511 O   0  0  0  0  0  0  0  0  0  0  0  0
   -8.5052   -4.4541  -12.4588 O   0  0  0  0  0  0  0  0  0  0  0  0
   -7.3451   -5.1864  -12.0716 C   0  0  0  0  0  0  0  0  0  0  0  0
   -7.5783   -6.7028  -12.1995 C   0  0  0  0  0  0  0  0  0  0  0  0
   -6.3983   -7.3995  -11.7647 O   0  0  0  0  0  0  0  0  0  0  0  0
  -11.0870   -5.7677  -10.1396 H   0  0  0  0  0  0  0  0  0  0  0  0
   -8.9736   -4.9099   -9.8467 H   0  0  0  0  0  0  0  0  0  0  0  0
   -6.4802   -7.5851  -10.8122 H   0  0  0  0  0  0  0  0  0  0  0  0
   -6.1726   -4.7132  -12.9483 C   0  0  0  0  0  0  0  0  0  0  0  0
   -4.9232   -4.7857  -12.2719 O   0  0  0  0  0  0  0  0  0  0  0  0
   -4.8547   -5.6907  -11.9012 H   0  0  0  0  0  0  0  0  0  0  0  0
 14 15  1  0
 14 16  1  0
  2  3  1  0
  2  9  1  0
  2 15  1  0
  3  4  1  0
  4  5  1  0
  4  1  1  0
  1 17  1  0
 17 18  1  0
 17 24  1  0
 18 19  1  0
 18 20  1  0
 19 26  1  0
 20 21  1  0
 20 22  1  0
 21 27  1  0
 22 23  1  0
 23 24  1  0
 23 29  1  0
 29 30  1  0
 30 31  1  0
 24 25  1  0
 25 28  1  0
  5  6  1  0
  5  7  1  0
  6 11  1  0
  7  8  1  0
  7  9  1  0
  8 12  1  0
  9 10  1  0
 10 13  1  0
M  END
> <minimizedAffinity>
-5.67424

> <CNNscore>
0.6730030775

> <CNNaffinity>
3.1266276836

> <CNN_VS>
2.1042301655

> <CNNaffinity_variance>
0.3973223269

$$$$



 31 32  0  0  0  0  0  0  0  0999 V2000
   -9.0559   -7.3753   -9.1915 O   0  0  0  0  0  0  0  0  0  0  0  0
   -9.6110   -4.4620  -11.2858 C   0  0  0  0  0  0  0  0  0  0  0  0
   -8.9311   -5.5334  -10.6132 O   0  0  0  0  0  0  0  0  0  0  0  0
   -9.7894   -6.2911   -9.7641 C   0  0  0  0  0  0  0  0  0  0  0  0
  -10.3393   -5.3971   -8.6294 C   0  0  0  0  0  0  0  0  0  0  0  0
  -11.2236   -6.1122   -7.7543 O   0  0  0  0  0  0  0  0  0  0  0  0
  -11.0741   -4.1937   -9.2589 C   0  0  0  0  0  0  0  0  0  0  0  0
  -11.5493   -3.2798   -8.2638 O   0  0  0  0  0  0  0  0  0  0  0  0
  -10.1679   -3.4630  -10.2619 C   0  0  0  0  0  0  0  0  0  0  0  0
  -10.8649   -2.4058  -10.9253 O   0  0  0  0  0  0  0  0  0  0  0  0
  -12.0538   -6.2927   -8.2267 H   0  0  0  0  0  0  0  0  0  0  0  0
  -10.7836   -2.9490   -7.7601 H   0  0  0  0  0  0  0  0  0  0  0  0
  -11.8096   -2.6343  -10.9765 H   0  0  0  0  0  0  0  0  0  0  0  0
   -7.4687   -3.3375  -11.4765 O   0  0  0  0  0  0  0  0  0  0  0  0
   -8.6085   -3.7727  -12.2217 C   0  0  0  0  0  0  0  0  0  0  0  0
   -6.9367   -2.7931  -12.0823 H   0  0  0  0  0  0  0  0  0  0  0  0
   -9.8177   -8.5815   -8.9566 C   0  0  0  0  0  0  0  0  0  0  0  0
   -9.5070   -9.1995   -7.5745 C   0  0  0  0  0  0  0  0  0  0  0  0
  -10.1172   -8.4374   -6.5195 O   0  0  0  0  0  0  0  0  0  0  0  0
   -9.9877  -10.6593   -7.4777 C   0  0  0  0  0  0  0  0  0  0  0  0
  -11.4004  -10.7310   -7.2976 O   0  0  0  0  0  0  0  0  0  0  0  0
   -9.5589  -11.4675   -8.5544 O   0  0  0  0  0  0  0  0  0  0  0  0
   -9.9733  -10.9866   -9.8309 C   0  0  0  0  0  0  0  0  0  0  0  0
   -9.4342   -9.5681  -10.0906 C   0  0  0  0  0  0  0  0  0  0  0  0
   -9.9063   -9.1114  -11.3694 O   0  0  0  0  0  0  0  0  0  0  0  0
  -10.9353   -8.9033   -6.2522 H   0  0  0  0  0  0  0  0  0  0  0  0
  -11.8362  -10.1631   -7.9520 H   0  0  0  0  0  0  0  0  0  0  0  0
  -10.7493   -8.6413  -11.2397 H   0  0  0  0  0  0  0  0  0  0  0  0
   -9.4856  -11.9863  -10.8940 C   0  0  0  0  0  0  0  0  0  0  0  0
   -8.8435  -11.3454  -11.9898 O   0  0  0  0  0  0  0  0  0  0  0  0
   -8.1669  -10.7463  -11.6098 H   0  0  0  0  0  0  0  0  0  0  0  0
 14 15  1  0
 14 16  1  0
  2  3  1  0
  2  9  1  0
  2 15  1  0
  3  4  1  0
  4  5  1  0
  4  1  1  0
  1 17  1  0
 17 18  1  0
 17 24  1  0
 18 19  1  0
 18 20  1  0
 19 26  1  0
 20 21  1  0
 20 22  1  0
 21 27  1  0
 22 23  1  0
 23 24  1  0
 23 29  1  0
 29 30  1  0
 30 31  1  0
 24 25  1  0
 25 28  1  0
  5  6  1  0
  5  7  1  0
  6 11  1  0
  7  8  1  0
  7  9  1  0
  8 12  1  0
  9 10  1  0
 10 13  1  0
M  END
> <minimizedAffinity>
-6.68408

> <CNNscore>
0.6496542692

> <CNNaffinity>
2.8143253326

> <CNN_VS>
1.8283385038

> <CNNaffinity_variance>
0.7327697873

$$$$



 31 32  0  0  0  0  0  0  0  0999 V2000
  -10.7289   -4.2666  -12.3149 O   0  0  0  0  0  0  0  0  0  0  0  0
  -10.0801   -6.1570   -9.2839 C   0  0  0  0  0  0  0  0  0  0  0  0
  -10.4088   -5.8665  -10.6515 O   0  0  0  0  0  0  0  0  0  0  0  0
  -10.4690   -4.4689  -10.9246 C   0  0  0  0  0  0  0  0  0  0  0  0
  -11.5990   -3.8136  -10.0981 C   0  0  0  0  0  0  0  0  0  0  0  0
  -11.6900   -2.3999  -10.3270 O   0  0  0  0  0  0  0  0  0  0  0  0
  -11.3440   -4.0936   -8.6012 C   0  0  0  0  0  0  0  0  0  0  0  0
  -12.3943   -3.5768   -7.7760 O   0  0  0  0  0  0  0  0  0  0  0  0
  -11.1622   -5.5986   -8.3493 C   0  0  0  0  0  0  0  0  0  0  0  0
  -10.8287   -5.8657   -6.9851 O   0  0  0  0  0  0  0  0  0  0  0  0
  -10.9239   -1.9658   -9.9151 H   0  0  0  0  0  0  0  0  0  0  0  0
  -13.2290   -4.0071   -8.0360 H   0  0  0  0  0  0  0  0  0  0  0  0
  -10.3477   -5.1012   -6.6224 H   0  0  0  0  0  0  0  0  0  0  0  0
   -9.1646   -7.9980   -7.9943 O   0  0  0  0  0  0  0  0  0  0  0  0
   -9.9700   -7.6804   -9.1321 C   0  0  0  0  0  0  0  0  0  0  0  0
   -9.0144   -8.9587   -8.0244 H   0  0  0  0  0  0  0  0  0  0  0  0
   -9.6073   -3.7851  -13.0899 C   0  0  0  0  0  0  0  0  0  0  0  0
   -9.7020   -4.2172  -14.5708 C   0  0  0  0  0  0  0  0  0  0  0  0
  -10.6978   -3.4511  -15.2693 O   0  0  0  0  0  0  0  0  0  0  0  0
   -8.3541   -4.0659  -15.2999 C   0  0  0  0  0  0  0  0  0  0  0  0
   -8.0842   -2.7021  -15.6168 O   0  0  0  0  0  0  0  0  0  0  0  0
   -7.2722   -4.6651  -14.6166 O   0  0  0  0  0  0  0  0  0  0  0  0
   -7.0797   -4.1612  -13.2970 C   0  0  0  0  0  0  0  0  0  0  0  0
   -8.3344   -4.3792  -12.4318 C   0  0  0  0  0  0  0  0  0  0  0  0
   -8.1080   -3.8242  -11.1251 O   0  0  0  0  0  0  0  0  0  0  0  0
  -10.2341   -2.7532  -15.7749 H   0  0  0  0  0  0  0  0  0  0  0  0
   -8.2255   -2.1557  -14.8280 H   0  0  0  0  0  0  0  0  0  0  0  0
   -8.4104   -2.8985  -11.1239 H   0  0  0  0  0  0  0  0  0  0  0  0
   -5.8458   -4.8595  -12.6994 C   0  0  0  0  0  0  0  0  0  0  0  0
   -4.6255   -4.3584  -13.2320 O   0  0  0  0  0  0  0  0  0  0  0  0
   -4.6598   -3.3824  -13.1468 H   0  0  0  0  0  0  0  0  0  0  0  0
 14 15  1  0
 14 16  1  0
  2  3  1  0
  2  9  1  0
  2 15  1  0
  3  4  1  0
  4  5  1  0
  4  1  1  0
  1 17  1  0
 17 18  1  0
 17 24  1  0
 18 19  1  0
 18 20  1  0
 19 26  1  0
 20 21  1  0
 20 22  1  0
 21 27  1  0
 22 23  1  0
 23 24  1  0
 23 29  1  0
 29 30  1  0
 30 31  1  0
 24 25  1  0
 25 28  1  0
  5  6  1  0
  5  7  1  0
  6 11  1  0
  7  8  1  0
  7  9  1  0
  8 12  1  0
  9 10  1  0
 10 13  1  0
M  END
> <minimizedAffinity>
-6.16024

> <CNNscore>
0.5007094145

> <CNNaffinity>
3.1586112976

> <CNN_VS>
1.5815464258

> <CNNaffinity_variance>
0.4761368334

$$$$



 31 32  0  0  0  0  0  0  0  0999 V2000
   -9.1650   -7.7709  -11.4629 O   0  0  0  0  0  0  0  0  0  0  0  0
  -10.1178   -9.7718   -8.5871 C   0  0  0  0  0  0  0  0  0  0  0  0
   -9.4679   -8.7633   -9.3766 O   0  0  0  0  0  0  0  0  0  0  0  0
   -9.7914   -8.8470  -10.7622 C   0  0  0  0  0  0  0  0  0  0  0  0
   -9.2921  -10.1888  -11.3449 C   0  0  0  0  0  0  0  0  0  0  0  0
   -9.6087  -10.3278  -12.7376 O   0  0  0  0  0  0  0  0  0  0  0  0
   -9.9239  -11.3444  -10.5390 C   0  0  0  0  0  0  0  0  0  0  0  0
   -9.4480  -12.6221  -10.9773 O   0  0  0  0  0  0  0  0  0  0  0  0
   -9.6644  -11.1683   -9.0347 C   0  0  0  0  0  0  0  0  0  0  0  0
  -10.3252  -12.1768   -8.2667 O   0  0  0  0  0  0  0  0  0  0  0  0
  -10.5667  -10.4651  -12.8291 H   0  0  0  0  0  0  0  0  0  0  0  0
   -8.4816  -12.6484  -10.8549 H   0  0  0  0  0  0  0  0  0  0  0  0
  -11.1263  -12.4604   -8.7412 H   0  0  0  0  0  0  0  0  0  0  0  0
   -9.8933   -8.1455   -6.7995 O   0  0  0  0  0  0  0  0  0  0  0  0
   -9.7555   -9.5332   -7.1148 C   0  0  0  0  0  0  0  0  0  0  0  0
   -9.5238   -8.0291   -5.9072 H   0  0  0  0  0  0  0  0  0  0  0  0
   -9.8598   -6.5045  -11.4002 C   0  0  0  0  0  0  0  0  0  0  0  0
  -10.1579   -6.0820   -9.9437 C   0  0  0  0  0  0  0  0  0  0  0  0
   -8.9653   -5.6233   -9.2851 O   0  0  0  0  0  0  0  0  0  0  0  0
  -11.2238   -4.9727   -9.8748 C   0  0  0  0  0  0  0  0  0  0  0  0
  -10.6785   -3.7043  -10.2312 O   0  0  0  0  0  0  0  0  0  0  0  0
  -12.3907   -5.2642  -10.6164 O   0  0  0  0  0  0  0  0  0  0  0  0
  -12.1439   -5.5059  -11.9995 C   0  0  0  0  0  0  0  0  0  0  0  0
  -11.1808   -6.6915  -12.1918 C   0  0  0  0  0  0  0  0  0  0  0  0
  -10.9329   -6.8742  -13.5961 O   0  0  0  0  0  0  0  0  0  0  0  0
   -8.9790   -4.6448   -9.2950 H   0  0  0  0  0  0  0  0  0  0  0  0
  -10.1810   -3.7906  -11.0594 H   0  0  0  0  0  0  0  0  0  0  0  0
  -10.1510   -6.3494  -13.8446 H   0  0  0  0  0  0  0  0  0  0  0  0
  -13.4987   -5.7537  -12.6854 C   0  0  0  0  0  0  0  0  0  0  0  0
  -13.7450   -4.8420  -13.7493 O   0  0  0  0  0  0  0  0  0  0  0  0
  -12.9527   -4.8604  -14.3263 H   0  0  0  0  0  0  0  0  0  0  0  0
 14 15  1  0
 14 16  1  0
  2  3  1  0
  2  9  1  0
  2 15  1  0
  3  4  1  0
  4  5  1  0
  4  1  1  0
  1 17  1  0
 17 18  1  0
 17 24  1  0
 18 19  1  0
 18 20  1  0
 19 26  1  0
 20 21  1  0
 20 22  1  0
 21 27  1  0
 22 23  1  0
 23 24  1  0
 23 29  1  0
 29 30  1  0
 30 31  1  0
 24 25  1  0
 25 28  1  0
  5  6  1  0
  5  7  1  0
  6 11  1  0
  7  8  1  0
  7  9  1  0
  8 12  1  0
  9 10  1  0
 10 13  1  0
M  END
> <minimizedAffinity>
-4.53259

> <CNNscore>
0.4858330190

> <CNNaffinity>
3.0348720551

> <CNN_VS>
1.4744410515

> <CNNaffinity_variance>
0.3657540381

$$$$



 31 32  0  0  0  0  0  0  0  0999 V2000
   -9.3163   -8.6662  -10.0272 O   0  0  0  0  0  0  0  0  0  0  0  0
  -10.4500  -10.8556   -7.3621 C   0  0  0  0  0  0  0  0  0  0  0  0
   -9.7465   -9.8021   -8.0387 O   0  0  0  0  0  0  0  0  0  0  0  0
   -9.9920   -9.7811   -9.4427 C   0  0  0  0  0  0  0  0  0  0  0  0
   -9.4738  -11.0843  -10.0927 C   0  0  0  0  0  0  0  0  0  0  0  0
   -9.7125  -11.1182  -11.5073 O   0  0  0  0  0  0  0  0  0  0  0  0
  -10.1616  -12.2861   -9.4094 C   0  0  0  0  0  0  0  0  0  0  0  0
   -9.6743  -13.5354   -9.9123 O   0  0  0  0  0  0  0  0  0  0  0  0
   -9.9859  -12.2225   -7.8842 C   0  0  0  0  0  0  0  0  0  0  0  0
  -10.6990  -13.2743   -7.2296 O   0  0  0  0  0  0  0  0  0  0  0  0
  -10.6651  -11.2351  -11.6617 H   0  0  0  0  0  0  0  0  0  0  0  0
   -8.7167  -13.5839   -9.7385 H   0  0  0  0  0  0  0  0  0  0  0  0
  -11.4748  -13.5118   -7.7673 H   0  0  0  0  0  0  0  0  0  0  0  0
  -11.3533  -11.0306   -5.1162 O   0  0  0  0  0  0  0  0  0  0  0  0
  -10.1692  -10.7288   -5.8585 C   0  0  0  0  0  0  0  0  0  0  0  0
  -11.1615  -10.8036   -4.1899 H   0  0  0  0  0  0  0  0  0  0  0  0
  -10.1417   -7.5066  -10.2810 C   0  0  0  0  0  0  0  0  0  0  0  0
  -10.0886   -6.4946   -9.1141 C   0  0  0  0  0  0  0  0  0  0  0  0
   -8.8402   -5.7822   -9.1053 O   0  0  0  0  0  0  0  0  0  0  0  0
  -11.2429   -5.4776   -9.1837 C   0  0  0  0  0  0  0  0  0  0  0  0
  -11.0030   -4.4857  -10.1796 O   0  0  0  0  0  0  0  0  0  0  0  0
  -12.5135   -6.0755   -9.3404 O   0  0  0  0  0  0  0  0  0  0  0  0
  -12.6212   -6.8933  -10.5031 C   0  0  0  0  0  0  0  0  0  0  0  0
  -11.5875   -8.0339  -10.4764 C   0  0  0  0  0  0  0  0  0  0  0  0
  -11.7084   -8.8079  -11.6819 O   0  0  0  0  0  0  0  0  0  0  0  0
   -8.9961   -4.9060   -9.5125 H   0  0  0  0  0  0  0  0  0  0  0  0
  -10.7432   -4.9191  -11.0075 H   0  0  0  0  0  0  0  0  0  0  0  0
  -11.1075   -8.4356  -12.3518 H   0  0  0  0  0  0  0  0  0  0  0  0
  -14.0616   -7.4298  -10.5723 C   0  0  0  0  0  0  0  0  0  0  0  0
  -14.5198   -7.9224   -9.3188 O   0  0  0  0  0  0  0  0  0  0  0  0
  -14.3462   -7.2190   -8.6583 H   0  0  0  0  0  0  0  0  0  0  0  0
 14 15  1  0
 14 16  1  0
  2  3  1  0
  2  9  1  0
  2 15  1  0
  3  4  1  0
  4  5  1  0
  4  1  1  0
  1 17  1  0
 17 18  1  0
 17 24  1  0
 18 19  1  0
 18 20  1  0
 19 26  1  0
 20 21  1  0
 20 22  1  0
 21 27  1  0
 22 23  1  0
 23 24  1  0
 23 29  1  0
 29 30  1  0
 30 31  1  0
 24 25  1  0
 25 28  1  0
  5  6  1  0
  5  7  1  0
  6 11  1  0
  7  8  1  0
  7  9  1  0
  8 12  1  0
  9 10  1  0
 10 13  1  0
M  END
> <minimizedAffinity>
-4.91014

> <CNNscore>
0.4393876493

> <CNNaffinity>
2.7169163227

> <CNN_VS>
1.1937794685

> <CNNaffinity_variance>
0.6254195571

$$$$



 31 32  0  0  0  0  0  0  0  0999 V2000
   -9.3102  -10.1573   -8.1614 O   0  0  0  0  0  0  0  0  0  0  0  0
   -9.6172   -8.3760  -11.3102 C   0  0  0  0  0  0  0  0  0  0  0  0
   -9.1341   -9.2971  -10.3198 O   0  0  0  0  0  0  0  0  0  0  0  0
   -9.7961   -9.1626   -9.0646 C   0  0  0  0  0  0  0  0  0  0  0  0
   -9.5260   -7.7623   -8.4682 C   0  0  0  0  0  0  0  0  0  0  0  0
  -10.1860   -7.5719   -7.2083 O   0  0  0  0  0  0  0  0  0  0  0  0
   -9.9950   -6.6942   -9.4799 C   0  0  0  0  0  0  0  0  0  0  0  0
   -9.7084   -5.3670   -9.0245 O   0  0  0  0  0  0  0  0  0  0  0  0
   -9.3607   -6.9313  -10.8593 C   0  0  0  0  0  0  0  0  0  0  0  0
   -9.8596   -6.0097  -11.8316 O   0  0  0  0  0  0  0  0  0  0  0  0
  -11.1423   -7.4930   -7.3641 H   0  0  0  0  0  0  0  0  0  0  0  0
   -8.7446   -5.2839   -8.9075 H   0  0  0  0  0  0  0  0  0  0  0  0
  -10.7669   -5.7548  -11.5882 H   0  0  0  0  0  0  0  0  0  0  0  0
   -7.4743   -8.6406  -12.4186 O   0  0  0  0  0  0  0  0  0  0  0  0
   -8.8882   -8.6668  -12.6292 C   0  0  0  0  0  0  0  0  0  0  0  0
   -7.0649   -8.6922  -13.2995 H   0  0  0  0  0  0  0  0  0  0  0  0
  -10.2389  -11.2228   -7.8572 C   0  0  0  0  0  0  0  0  0  0  0  0
  -11.2959  -11.4017   -8.9704 C   0  0  0  0  0  0  0  0  0  0  0  0
  -10.7248  -12.0358  -10.1272 O   0  0  0  0  0  0  0  0  0  0  0  0
  -12.5003  -12.2323   -8.4899 C   0  0  0  0  0  0  0  0  0  0  0  0
  -12.1853  -13.6219   -8.4349 O   0  0  0  0  0  0  0  0  0  0  0  0
  -13.0514  -11.7752   -7.2717 O   0  0  0  0  0  0  0  0  0  0  0  0
  -12.1177  -11.7518   -6.1948 C   0  0  0  0  0  0  0  0  0  0  0  0
  -10.9212  -10.8385   -6.5181 C   0  0  0  0  0  0  0  0  0  0  0  0
   -9.9910  -10.8749   -5.4225 O   0  0  0  0  0  0  0  0  0  0  0  0
  -10.9745  -12.9817  -10.1003 H   0  0  0  0  0  0  0  0  0  0  0  0
  -11.3469  -13.7420   -7.9623 H   0  0  0  0  0  0  0  0  0  0  0  0
   -9.3445  -11.5845   -5.5871 H   0  0  0  0  0  0  0  0  0  0  0  0
  -12.8642  -11.2890   -4.9315 C   0  0  0  0  0  0  0  0  0  0  0  0
  -14.0592  -10.5793   -5.2348 O   0  0  0  0  0  0  0  0  0  0  0  0
  -14.5661  -11.1351   -5.8634 H   0  0  0  0  0  0  0  0  0  0  0  0
 14 15  1  0
 14 16  1  0
  2  3  1  0
  2  9  1  0
  2 15  1  0
  3  4  1  0
  4  5  1  0
  4  1  1  0
  1 17  1  0
 17 18  1  0
 17 24  1  0
 18 19  1  0
 18 20  1  0
 19 26  1  0
 20 21  1  0
 20 22  1  0
 21 27  1  0
 22 23  1  0
 23 24  1  0
 23 29  1  0
 29 30  1  0
 30 31  1  0
 24 25  1  0
 25 28  1  0
  5  6  1  0
  5  7  1  0
  6 11  1  0
  7  8  1  0
  7  9  1  0
  8 12  1  0
  9 10  1  0
 10 13  1  0
M  END
> <minimizedAffinity>
-5.11029

> <CNNscore>
0.4384382963

> <CNNaffinity>
3.5287086964

> <CNN_VS>
1.5471210480

> <CNNaffinity_variance>
1.3408261538

$$$$



 31 32  0  0  0  0  0  0  0  0999 V2000
   -8.9357   -9.9249  -10.3420 O   0  0  0  0  0  0  0  0  0  0  0  0
  -10.5463  -11.2449   -7.3680 C   0  0  0  0  0  0  0  0  0  0  0  0
   -9.5939  -10.5648   -8.2004 O   0  0  0  0  0  0  0  0  0  0  0  0
   -9.8838  -10.6852   -9.5908 C   0  0  0  0  0  0  0  0  0  0  0  0
   -9.8023  -12.1665  -10.0248 C   0  0  0  0  0  0  0  0  0  0  0  0
  -10.1024  -12.3421  -11.4170 O   0  0  0  0  0  0  0  0  0  0  0  0
  -10.7832  -12.9900   -9.1623 C   0  0  0  0  0  0  0  0  0  0  0  0
  -10.7088  -14.3889   -9.4596 O   0  0  0  0  0  0  0  0  0  0  0  0
  -10.5296  -12.7507   -7.6657 C   0  0  0  0  0  0  0  0  0  0  0  0
  -11.4917  -13.4297   -6.8553 O   0  0  0  0  0  0  0  0  0  0  0  0
  -11.0530  -12.1917  -11.5541 H   0  0  0  0  0  0  0  0  0  0  0  0
   -9.8015  -14.6938   -9.2771 H   0  0  0  0  0  0  0  0  0  0  0  0
  -12.3259  -13.5038   -7.3513 H   0  0  0  0  0  0  0  0  0  0  0  0
   -9.7109   -9.6365   -5.7538 O   0  0  0  0  0  0  0  0  0  0  0  0
  -10.1747  -10.9807   -5.9024 C   0  0  0  0  0  0  0  0  0  0  0  0
   -9.3628   -9.5651   -4.8482 H   0  0  0  0  0  0  0  0  0  0  0  0
   -9.1612   -8.4968  -10.3574 C   0  0  0  0  0  0  0  0  0  0  0  0
   -9.4912   -7.9501   -8.9500 C   0  0  0  0  0  0  0  0  0  0  0  0
   -8.3140   -7.9000   -8.1267 O   0  0  0  0  0  0  0  0  0  0  0  0
  -10.1163   -6.5441   -9.0127 C   0  0  0  0  0  0  0  0  0  0  0  0
   -9.1301   -5.5474   -9.2721 O   0  0  0  0  0  0  0  0  0  0  0  0
  -11.2017   -6.4484   -9.9122 O   0  0  0  0  0  0  0  0  0  0  0  0
  -10.8678   -6.8053  -11.2514 C   0  0  0  0  0  0  0  0  0  0  0  0
  -10.3478   -8.2524  -11.3263 C   0  0  0  0  0  0  0  0  0  0  0  0
   -9.9900   -8.5548  -12.6855 O   0  0  0  0  0  0  0  0  0  0  0  0
   -7.9932   -6.9754   -8.1241 H   0  0  0  0  0  0  0  0  0  0  0  0
   -8.5848   -5.8244  -10.0249 H   0  0  0  0  0  0  0  0  0  0  0  0
   -9.0505   -8.3340  -12.8161 H   0  0  0  0  0  0  0  0  0  0  0  0
  -12.1209   -6.6032  -12.1212 C   0  0  0  0  0  0  0  0  0  0  0  0
  -12.5435   -5.2454  -12.1597 O   0  0  0  0  0  0  0  0  0  0  0  0
  -11.7563   -4.7110  -12.3959 H   0  0  0  0  0  0  0  0  0  0  0  0
 14 15  1  0
 14 16  1  0
  2  3  1  0
  2  9  1  0
  2 15  1  0
  3  4  1  0
  4  5  1  0
  4  1  1  0
  1 17  1  0
 17 18  1  0
 17 24  1  0
 18 19  1  0
 18 20  1  0
 19 26  1  0
 20 21  1  0
 20 22  1  0
 21 27  1  0
 22 23  1  0
 23 24  1  0
 23 29  1  0
 29 30  1  0
 30 31  1  0
 24 25  1  0
 25 28  1  0
  5  6  1  0
  5  7  1  0
  6 11  1  0
  7  8  1  0
  7  9  1  0
  8 12  1  0
  9 10  1  0
 10 13  1  0
M  END
> <minimizedAffinity>
-5.24676

> <CNNscore>
0.4158425629

> <CNNaffinity>
3.1766488552

> <CNN_VS>
1.3209857941

> <CNNaffinity_variance>
0.5350854993

$$$$
