


 31 32  0  0  0  0  0  0  0  0999 V2000
   18.0614  -12.4609   -4.8149 O   0  0  0  0  0  0  0  0  0  0  0  0
   16.9158  -10.7878   -1.8033 C   0  0  0  0  0  0  0  0  0  0  0  0
   17.7180  -11.5955   -2.6789 O   0  0  0  0  0  0  0  0  0  0  0  0
   17.1718  -11.7054   -3.9909 C   0  0  0  0  0  0  0  0  0  0  0  0
   15.8016  -12.4192   -3.9385 C   0  0  0  0  0  0  0  0  0  0  0  0
   15.2021  -12.5404   -5.2366 O   0  0  0  0  0  0  0  0  0  0  0  0
   14.8683  -11.6308   -2.9942 C   0  0  0  0  0  0  0  0  0  0  0  0
   13.5992  -12.2761   -2.8388 O   0  0  0  0  0  0  0  0  0  0  0  0
   15.5287  -11.4200   -1.6228 C   0  0  0  0  0  0  0  0  0  0  0  0
   14.7183  -10.6084   -0.7695 O   0  0  0  0  0  0  0  0  0  0  0  0
   14.9086  -11.6612   -5.5296 H   0  0  0  0  0  0  0  0  0  0  0  0
   13.7492  -13.1617   -2.4611 H   0  0  0  0  0  0  0  0  0  0  0  0
   14.1928  -10.0002   -1.3184 H   0  0  0  0  0  0  0  0  0  0  0  0
   17.1803   -9.5278    0.2541 O   0  0  0  0  0  0  0  0  0  0  0  0
   17.6398  -10.6816   -0.4541 C   0  0  0  0  0  0  0  0  0  0  0  0
   17.7618   -9.4316    1.0280 H   0  0  0  0  0  0  0  0  0  0  0  0
   19.4332  -12.5102   -4.3608 C   0  0  0  0  0  0  0  0  0  0  0  0
   20.4138  -11.9767   -5.4297 C   0  0  0  0  0  0  0  0  0  0  0  0
   20.3457  -10.5439   -5.5232 O   0  0  0  0  0  0  0  0  0  0  0  0
   21.8673  -12.3886   -5.1314 C   0  0  0  0  0  0  0  0  0  0  0  0
   22.4281  -11.5977   -4.0858 O   0  0  0  0  0  0  0  0  0  0  0  0
   22.0221  -13.7702   -4.8786 O   0  0  0  0  0  0  0  0  0  0  0  0
   21.2333  -14.2443   -3.7900 C   0  0  0  0  0  0  0  0  0  0  0  0
   19.7347  -13.9983   -4.0427 C   0  0  0  0  0  0  0  0  0  0  0  0
   18.9835  -14.4575   -2.9061 O   0  0  0  0  0  0  0  0  0  0  0  0
   21.1030  -10.1779   -5.0228 H   0  0  0  0  0  0  0  0  0  0  0  0
   21.8117  -11.5723   -3.3373 H   0  0  0  0  0  0  0  0  0  0  0  0
   18.8805  -13.7171   -2.2819 H   0  0  0  0  0  0  0  0  0  0  0  0
   21.5421  -15.7394   -3.5980 C   0  0  0  0  0  0  0  0  0  0  0  0
   20.5477  -16.5787   -4.1729 O   0  0  0  0  0  0  0  0  0  0  0  0
   20.4193  -16.2735   -5.0956 H   0  0  0  0  0  0  0  0  0  0  0  0
 14 15  1  0
 14 16  1  0
  2  3  1  0
  2  9  1  0
  2 15  1  0
  3  4  1  0
  4  5  1  0
  4  1  1  0
  1 17  1  0
 17 18  1  0
 17 24  1  0
 18 19  1  0
 18 20  1  0
 19 26  1  0
 20 21  1  0
 20 22  1  0
 21 27  1  0
 22 23  1  0
 23 24  1  0
 23 29  1  0
 29 30  1  0
 30 31  1  0
 24 25  1  0
 25 28  1  0
  5  6  1  0
  5  7  1  0
  6 11  1  0
  7  8  1  0
  7  9  1  0
  8 12  1  0
  9 10  1  0
 10 13  1  0
M  END
> <minimizedAffinity>
-4.14360

> <CNNscore>
0.9463356137

> <CNNaffinity>
3.3523089886

> <CNN_VS>
3.1724092960

> <CNNaffinity_variance>
0.3283972740

$$$$



 31 32  0  0  0  0  0  0  0  0999 V2000
   17.6240  -12.6674   -4.6079 O   0  0  0  0  0  0  0  0  0  0  0  0
   17.8023  -10.4709   -1.7226 C   0  0  0  0  0  0  0  0  0  0  0  0
   18.1767  -11.4627   -2.6916 O   0  0  0  0  0  0  0  0  0  0  0  0
   17.1483  -11.7282   -3.6421 C   0  0  0  0  0  0  0  0  0  0  0  0
   15.9074  -12.3166   -2.9327 C   0  0  0  0  0  0  0  0  0  0  0  0
   14.8356  -12.5869   -3.8478 O   0  0  0  0  0  0  0  0  0  0  0  0
   15.4403  -11.3232   -1.8468 C   0  0  0  0  0  0  0  0  0  0  0  0
   14.3339  -11.8363   -1.0958 O   0  0  0  0  0  0  0  0  0  0  0  0
   16.5981  -10.9581   -0.9047 C   0  0  0  0  0  0  0  0  0  0  0  0
   16.2074   -9.9653    0.0466 O   0  0  0  0  0  0  0  0  0  0  0  0
   14.4582  -11.7425   -4.1469 H   0  0  0  0  0  0  0  0  0  0  0  0
   14.6139  -12.6630   -0.6627 H   0  0  0  0  0  0  0  0  0  0  0  0
   15.5119   -9.4087   -0.3458 H   0  0  0  0  0  0  0  0  0  0  0  0
   18.7369   -9.1131    0.0588 O   0  0  0  0  0  0  0  0  0  0  0  0
   19.0085  -10.2173   -0.8079 C   0  0  0  0  0  0  0  0  0  0  0  0
   19.5724   -8.9098    0.5137 H   0  0  0  0  0  0  0  0  0  0  0  0
   17.6363  -12.1964   -5.9748 C   0  0  0  0  0  0  0  0  0  0  0  0
   16.6503  -12.9856   -6.8655 C   0  0  0  0  0  0  0  0  0  0  0  0
   15.2912  -12.6035   -6.5949 O   0  0  0  0  0  0  0  0  0  0  0  0
   16.9380  -12.7776   -8.3640 C   0  0  0  0  0  0  0  0  0  0  0  0
   16.4725  -11.5064   -8.8115 O   0  0  0  0  0  0  0  0  0  0  0  0
   18.2906  -12.9889   -8.7137 O   0  0  0  0  0  0  0  0  0  0  0  0
   19.2020  -12.1531   -8.0046 C   0  0  0  0  0  0  0  0  0  0  0  0
   19.0903  -12.3748   -6.4852 C   0  0  0  0  0  0  0  0  0  0  0  0
   19.9987  -11.4872   -5.8114 O   0  0  0  0  0  0  0  0  0  0  0  0
   15.0141  -11.9782   -7.2950 H   0  0  0  0  0  0  0  0  0  0  0  0
   16.7812  -10.8188   -8.2010 H   0  0  0  0  0  0  0  0  0  0  0  0
   19.5295  -10.6586   -5.6073 H   0  0  0  0  0  0  0  0  0  0  0  0
   20.6195  -12.4525   -8.5227 C   0  0  0  0  0  0  0  0  0  0  0  0
   20.9492  -13.8338   -8.4386 O   0  0  0  0  0  0  0  0  0  0  0  0
   20.2153  -14.3258   -8.8634 H   0  0  0  0  0  0  0  0  0  0  0  0
 14 15  1  0
 14 16  1  0
  2  3  1  0
  2  9  1  0
  2 15  1  0
  3  4  1  0
  4  5  1  0
  4  1  1  0
  1 17  1  0
 17 18  1  0
 17 24  1  0
 18 19  1  0
 18 20  1  0
 19 26  1  0
 20 21  1  0
 20 22  1  0
 21 27  1  0
 22 23  1  0
 23 24  1  0
 23 29  1  0
 29 30  1  0
 30 31  1  0
 24 25  1  0
 25 28  1  0
  5  6  1  0
  5  7  1  0
  6 11  1  0
  7  8  1  0
  7  9  1  0
  8 12  1  0
  9 10  1  0
 10 13  1  0
M  END
> <minimizedAffinity>
-4.77576

> <CNNscore>
0.9445306659

> <CNNaffinity>
2.9551270008

> <CNN_VS>
2.7912080288

> <CNNaffinity_variance>
0.7071928382

$$$$



 31 32  0  0  0  0  0  0  0  0999 V2000
   17.5837   -9.5989   -0.6427 O   0  0  0  0  0  0  0  0  0  0  0  0
   19.0471  -10.4686    2.5641 C   0  0  0  0  0  0  0  0  0  0  0  0
   18.0816  -10.3437    1.5083 O   0  0  0  0  0  0  0  0  0  0  0  0
   18.5747   -9.6158    0.3864 C   0  0  0  0  0  0  0  0  0  0  0  0
   18.9019   -8.1621    0.7976 C   0  0  0  0  0  0  0  0  0  0  0  0
   19.4181   -7.3908   -0.2969 O   0  0  0  0  0  0  0  0  0  0  0  0
   19.9245   -8.1928    1.9541 C   0  0  0  0  0  0  0  0  0  0  0  0
   20.2209   -6.8779    2.4382 O   0  0  0  0  0  0  0  0  0  0  0  0
   19.4242   -9.0818    3.1034 C   0  0  0  0  0  0  0  0  0  0  0  0
   20.4017   -9.1990    4.1398 O   0  0  0  0  0  0  0  0  0  0  0  0
   20.3163   -7.7005   -0.5025 H   0  0  0  0  0  0  0  0  0  0  0  0
   19.3945   -6.4768    2.7631 H   0  0  0  0  0  0  0  0  0  0  0  0
   21.2885   -9.1110    3.7485 H   0  0  0  0  0  0  0  0  0  0  0  0
   17.8212  -10.4910    4.6587 O   0  0  0  0  0  0  0  0  0  0  0  0
   18.4315  -11.3302    3.6751 C   0  0  0  0  0  0  0  0  0  0  0  0
   17.5723  -11.0718    5.3983 H   0  0  0  0  0  0  0  0  0  0  0  0
   17.4935  -10.8054   -1.4342 C   0  0  0  0  0  0  0  0  0  0  0  0
   18.3424  -10.7145   -2.7226 C   0  0  0  0  0  0  0  0  0  0  0  0
   19.7435  -10.8417   -2.4275 O   0  0  0  0  0  0  0  0  0  0  0  0
   17.9483  -11.7950   -3.7467 C   0  0  0  0  0  0  0  0  0  0  0  0
   18.4674  -13.0719   -3.3817 O   0  0  0  0  0  0  0  0  0  0  0  0
   16.5596  -11.8515   -4.0016 O   0  0  0  0  0  0  0  0  0  0  0  0
   15.7735  -12.0894   -2.8365 C   0  0  0  0  0  0  0  0  0  0  0  0
   15.9933  -10.9867   -1.7848 C   0  0  0  0  0  0  0  0  0  0  0  0
   15.2111  -11.2871   -0.6165 O   0  0  0  0  0  0  0  0  0  0  0  0
   20.0071  -11.7618   -2.6316 H   0  0  0  0  0  0  0  0  0  0  0  0
   18.2612  -13.2474   -2.4503 H   0  0  0  0  0  0  0  0  0  0  0  0
   15.7550  -11.8159   -0.0058 H   0  0  0  0  0  0  0  0  0  0  0  0
   14.3000  -12.1790   -3.2703 C   0  0  0  0  0  0  0  0  0  0  0  0
   13.4770  -12.7843   -2.2803 O   0  0  0  0  0  0  0  0  0  0  0  0
   13.6573  -12.3160   -1.4381 H   0  0  0  0  0  0  0  0  0  0  0  0
 14 15  1  0
 14 16  1  0
  2  3  1  0
  2  9  1  0
  2 15  1  0
  3  4  1  0
  4  5  1  0
  4  1  1  0
  1 17  1  0
 17 18  1  0
 17 24  1  0
 18 19  1  0
 18 20  1  0
 19 26  1  0
 20 21  1  0
 20 22  1  0
 21 27  1  0
 22 23  1  0
 23 24  1  0
 23 29  1  0
 29 30  1  0
 30 31  1  0
 24 25  1  0
 25 28  1  0
  5  6  1  0
  5  7  1  0
  6 11  1  0
  7  8  1  0
  7  9  1  0
  8 12  1  0
  9 10  1  0
 10 13  1  0
M  END
> <minimizedAffinity>
-5.20538

> <CNNscore>
0.9416476488

> <CNNaffinity>
3.1916973591

> <CNN_VS>
3.0054543018

> <CNNaffinity_variance>
0.4907383025

$$$$



 31 32  0  0  0  0  0  0  0  0999 V2000
   18.3768  -12.0770   -4.3752 O   0  0  0  0  0  0  0  0  0  0  0  0
   17.3608  -10.3269   -1.3608 C   0  0  0  0  0  0  0  0  0  0  0  0
   18.1544  -11.1081   -2.2678 O   0  0  0  0  0  0  0  0  0  0  0  0
   17.4972  -11.3597   -3.5073 C   0  0  0  0  0  0  0  0  0  0  0  0
   16.2217  -12.2007   -3.2720 C   0  0  0  0  0  0  0  0  0  0  0  0
   15.5143  -12.4679   -4.4916 O   0  0  0  0  0  0  0  0  0  0  0  0
   15.3072  -11.4471   -2.2821 C   0  0  0  0  0  0  0  0  0  0  0  0
   14.1346  -12.2031   -1.9589 O   0  0  0  0  0  0  0  0  0  0  0  0
   16.0725  -11.0800   -1.0011 C   0  0  0  0  0  0  0  0  0  0  0  0
   15.2683  -10.2972   -0.1157 O   0  0  0  0  0  0  0  0  0  0  0  0
   15.1025  -11.6439   -4.8021 H   0  0  0  0  0  0  0  0  0  0  0  0
   14.4134  -13.0421   -1.5492 H   0  0  0  0  0  0  0  0  0  0  0  0
   14.6304   -9.7825   -0.6406 H   0  0  0  0  0  0  0  0  0  0  0  0
   17.7507   -8.8581    0.5316 O   0  0  0  0  0  0  0  0  0  0  0  0
   18.1980  -10.0589   -0.1025 C   0  0  0  0  0  0  0  0  0  0  0  0
   18.3945   -8.6630    1.2343 H   0  0  0  0  0  0  0  0  0  0  0  0
   18.6954  -11.4127   -5.6192 C   0  0  0  0  0  0  0  0  0  0  0  0
   18.2809  -12.2565   -6.8459 C   0  0  0  0  0  0  0  0  0  0  0  0
   16.8557  -12.2316   -7.0316 O   0  0  0  0  0  0  0  0  0  0  0  0
   18.9608  -11.7644   -8.1371 C   0  0  0  0  0  0  0  0  0  0  0  0
   18.3458  -10.5755   -8.6283 O   0  0  0  0  0  0  0  0  0  0  0  0
   20.3606  -11.6142   -8.0160 O   0  0  0  0  0  0  0  0  0  0  0  0
   20.7519  -10.7145   -6.9818 C   0  0  0  0  0  0  0  0  0  0  0  0
   20.2297  -11.1839   -5.6117 C   0  0  0  0  0  0  0  0  0  0  0  0
   20.6159  -10.2297   -4.6081 O   0  0  0  0  0  0  0  0  0  0  0  0
   16.6603  -11.5845   -7.7394 H   0  0  0  0  0  0  0  0  0  0  0  0
   18.2566   -9.9376   -7.9032 H   0  0  0  0  0  0  0  0  0  0  0  0
   19.9077   -9.5669   -4.5205 H   0  0  0  0  0  0  0  0  0  0  0  0
   22.2868  -10.6092   -7.0023 C   0  0  0  0  0  0  0  0  0  0  0  0
   22.7658   -9.4942   -6.2599 O   0  0  0  0  0  0  0  0  0  0  0  0
   22.3422   -9.5396   -5.3769 H   0  0  0  0  0  0  0  0  0  0  0  0
 14 15  1  0
 14 16  1  0
  2  3  1  0
  2  9  1  0
  2 15  1  0
  3  4  1  0
  4  5  1  0
  4  1  1  0
  1 17  1  0
 17 18  1  0
 17 24  1  0
 18 19  1  0
 18 20  1  0
 19 26  1  0
 20 21  1  0
 20 22  1  0
 21 27  1  0
 22 23  1  0
 23 24  1  0
 23 29  1  0
 29 30  1  0
 30 31  1  0
 24 25  1  0
 25 28  1  0
  5  6  1  0
  5  7  1  0
  6 11  1  0
  7  8  1  0
  7  9  1  0
  8 12  1  0
  9 10  1  0
 10 13  1  0
M  END
> <minimizedAffinity>
-4.42320

> <CNNscore>
0.9285686016

> <CNNaffinity>
2.9819400311

> <CNN_VS>
2.7689359188

> <CNNaffinity_variance>
0.5353229642

$$$$



 31 32  0  0  0  0  0  0  0  0999 V2000
   17.4071  -12.5480   -4.8201 O   0  0  0  0  0  0  0  0  0  0  0  0
   17.9231  -10.4711   -1.8872 C   0  0  0  0  0  0  0  0  0  0  0  0
   18.1660  -11.4487   -2.9110 O   0  0  0  0  0  0  0  0  0  0  0  0
   17.0598  -11.6164   -3.7940 C   0  0  0  0  0  0  0  0  0  0  0  0
   15.8356  -12.1524   -3.0172 C   0  0  0  0  0  0  0  0  0  0  0  0
   14.6883  -12.3236   -3.8620 O   0  0  0  0  0  0  0  0  0  0  0  0
   15.5086  -11.1717   -1.8702 C   0  0  0  0  0  0  0  0  0  0  0  0
   14.4261  -11.6424   -1.0592 O   0  0  0  0  0  0  0  0  0  0  0  0
   16.7495  -10.9123   -1.0017 C   0  0  0  0  0  0  0  0  0  0  0  0
   16.4892   -9.9320    0.0056 O   0  0  0  0  0  0  0  0  0  0  0  0
   14.3459  -11.4474   -4.1070 H   0  0  0  0  0  0  0  0  0  0  0  0
   14.6819  -12.4997   -0.6731 H   0  0  0  0  0  0  0  0  0  0  0  0
   15.8053   -9.3201   -0.3188 H   0  0  0  0  0  0  0  0  0  0  0  0
   20.3471  -10.3507   -1.9100 O   0  0  0  0  0  0  0  0  0  0  0  0
   19.2031  -10.3249   -1.0528 C   0  0  0  0  0  0  0  0  0  0  0  0
   21.1251  -10.3939   -1.3276 H   0  0  0  0  0  0  0  0  0  0  0  0
   17.5672  -13.9171   -4.3839 C   0  0  0  0  0  0  0  0  0  0  0  0
   19.0555  -14.3257   -4.3020 C   0  0  0  0  0  0  0  0  0  0  0  0
   19.6904  -13.7353   -3.1554 O   0  0  0  0  0  0  0  0  0  0  0  0
   19.2279  -15.8545   -4.2356 C   0  0  0  0  0  0  0  0  0  0  0  0
   18.9207  -16.3568   -2.9369 O   0  0  0  0  0  0  0  0  0  0  0  0
   18.5185  -16.5470   -5.2424 O   0  0  0  0  0  0  0  0  0  0  0  0
   17.1154  -16.2949   -5.2297 C   0  0  0  0  0  0  0  0  0  0  0  0
   16.8197  -14.7961   -5.4207 C   0  0  0  0  0  0  0  0  0  0  0  0
   15.3987  -14.5853   -5.3643 O   0  0  0  0  0  0  0  0  0  0  0  0
   19.7351  -14.4189   -2.4565 H   0  0  0  0  0  0  0  0  0  0  0  0
   18.0699  -15.9934   -2.6457 H   0  0  0  0  0  0  0  0  0  0  0  0
   15.1486  -14.3978   -4.4419 H   0  0  0  0  0  0  0  0  0  0  0  0
   16.4713  -17.1494   -6.3353 C   0  0  0  0  0  0  0  0  0  0  0  0
   17.1747  -17.0635   -7.5689 O   0  0  0  0  0  0  0  0  0  0  0  0
   18.1174  -17.2442   -7.3697 H   0  0  0  0  0  0  0  0  0  0  0  0
 14 15  1  0
 14 16  1  0
  2  3  1  0
  2  9  1  0
  2 15  1  0
  3  4  1  0
  4  5  1  0
  4  1  1  0
  1 17  1  0
 17 18  1  0
 17 24  1  0
 18 19  1  0
 18 20  1  0
 19 26  1  0
 20 21  1  0
 20 22  1  0
 21 27  1  0
 22 23  1  0
 23 24  1  0
 23 29  1  0
 29 30  1  0
 30 31  1  0
 24 25  1  0
 25 28  1  0
  5  6  1  0
  5  7  1  0
  6 11  1  0
  7  8  1  0
  7  9  1  0
  8 12  1  0
  9 10  1  0
 10 13  1  0
M  END
> <minimizedAffinity>
-4.25352

> <CNNscore>
0.9214565158

> <CNNaffinity>
3.1075928211

> <CNN_VS>
2.8635115623

> <CNNaffinity_variance>
0.4086397588

$$$$



 31 32  0  0  0  0  0  0  0  0999 V2000
   19.4119  -10.9980   -3.7319 O   0  0  0  0  0  0  0  0  0  0  0  0
   16.0713  -12.0570   -2.7828 C   0  0  0  0  0  0  0  0  0  0  0  0
   17.1616  -11.5858   -3.5902 O   0  0  0  0  0  0  0  0  0  0  0  0
   18.3631  -11.3963   -2.8471 C   0  0  0  0  0  0  0  0  0  0  0  0
   18.1595  -10.2991   -1.7775 C   0  0  0  0  0  0  0  0  0  0  0  0
   19.3396  -10.0819   -0.9904 O   0  0  0  0  0  0  0  0  0  0  0  0
   16.9818  -10.7081   -0.8665 C   0  0  0  0  0  0  0  0  0  0  0  0
   16.6868   -9.7003    0.1074 O   0  0  0  0  0  0  0  0  0  0  0  0
   15.7299  -11.0244   -1.6996 C   0  0  0  0  0  0  0  0  0  0  0  0
   14.6596  -11.4983   -0.8790 O   0  0  0  0  0  0  0  0  0  0  0  0
   19.4716  -10.8471   -0.4056 H   0  0  0  0  0  0  0  0  0  0  0  0
   16.4480   -8.8804   -0.3617 H   0  0  0  0  0  0  0  0  0  0  0  0
   15.0337  -11.9512   -0.1029 H   0  0  0  0  0  0  0  0  0  0  0  0
   13.9999  -13.2753   -3.1227 O   0  0  0  0  0  0  0  0  0  0  0  0
   14.8646  -12.2946   -3.7011 C   0  0  0  0  0  0  0  0  0  0  0  0
   13.3337  -13.4867   -3.7994 H   0  0  0  0  0  0  0  0  0  0  0  0
   20.3378  -12.0443   -4.1040 C   0  0  0  0  0  0  0  0  0  0  0  0
   19.6198  -13.3924   -4.3399 C   0  0  0  0  0  0  0  0  0  0  0  0
   18.9042  -13.3848   -5.5866 O   0  0  0  0  0  0  0  0  0  0  0  0
   20.6055  -14.5755   -4.3377 C   0  0  0  0  0  0  0  0  0  0  0  0
   21.3385  -14.6442   -5.5588 O   0  0  0  0  0  0  0  0  0  0  0  0
   21.4627  -14.5941   -3.2146 O   0  0  0  0  0  0  0  0  0  0  0  0
   22.2462  -13.4115   -3.0736 C   0  0  0  0  0  0  0  0  0  0  0  0
   21.3511  -12.1666   -2.9358 C   0  0  0  0  0  0  0  0  0  0  0  0
   22.1819  -10.9978   -2.8335 O   0  0  0  0  0  0  0  0  0  0  0  0
   19.4508  -13.8597   -6.2449 H   0  0  0  0  0  0  0  0  0  0  0  0
   21.6982  -13.7677   -5.7665 H   0  0  0  0  0  0  0  0  0  0  0  0
   22.3344  -10.6455   -3.7286 H   0  0  0  0  0  0  0  0  0  0  0  0
   23.1624  -13.5942   -1.8511 C   0  0  0  0  0  0  0  0  0  0  0  0
   22.6536  -12.9511   -0.6886 O   0  0  0  0  0  0  0  0  0  0  0  0
   21.7242  -13.2459   -0.5866 H   0  0  0  0  0  0  0  0  0  0  0  0
 14 15  1  0
 14 16  1  0
  2  3  1  0
  2  9  1  0
  2 15  1  0
  3  4  1  0
  4  5  1  0
  4  1  1  0
  1 17  1  0
 17 18  1  0
 17 24  1  0
 18 19  1  0
 18 20  1  0
 19 26  1  0
 20 21  1  0
 20 22  1  0
 21 27  1  0
 22 23  1  0
 23 24  1  0
 23 29  1  0
 29 30  1  0
 30 31  1  0
 24 25  1  0
 25 28  1  0
  5  6  1  0
  5  7  1  0
  6 11  1  0
  7  8  1  0
  7  9  1  0
  8 12  1  0
  9 10  1  0
 10 13  1  0
M  END
> <minimizedAffinity>
-4.07059

> <CNNscore>
0.9159591794

> <CNNaffinity>
3.2557134628

> <CNN_VS>
2.9821007252

> <CNNaffinity_variance>
0.2841145694

$$$$



 31 32  0  0  0  0  0  0  0  0999 V2000
   18.0725  -12.4654   -4.8328 O   0  0  0  0  0  0  0  0  0  0  0  0
   16.9346  -10.8388   -1.7929 C   0  0  0  0  0  0  0  0  0  0  0  0
   17.7225  -11.6500   -2.6783 O   0  0  0  0  0  0  0  0  0  0  0  0
   17.1963  -11.7017   -4.0020 C   0  0  0  0  0  0  0  0  0  0  0  0
   15.8004  -12.3655   -3.9939 C   0  0  0  0  0  0  0  0  0  0  0  0
   15.2202  -12.4269   -5.3050 O   0  0  0  0  0  0  0  0  0  0  0  0
   14.8796  -11.5708   -3.0427 C   0  0  0  0  0  0  0  0  0  0  0  0
   13.5852  -12.1729   -2.9279 O   0  0  0  0  0  0  0  0  0  0  0  0
   15.5224  -11.4242   -1.6547 C   0  0  0  0  0  0  0  0  0  0  0  0
   14.7269  -10.6082   -0.7916 O   0  0  0  0  0  0  0  0  0  0  0  0
   14.9643  -11.5294   -5.5769 H   0  0  0  0  0  0  0  0  0  0  0  0
   13.6960  -13.0740   -2.5741 H   0  0  0  0  0  0  0  0  0  0  0  0
   14.2339   -9.9654   -1.3312 H   0  0  0  0  0  0  0  0  0  0  0  0
   17.1761   -9.6730    0.3220 O   0  0  0  0  0  0  0  0  0  0  0  0
   17.6377  -10.7985   -0.4291 C   0  0  0  0  0  0  0  0  0  0  0  0
   17.7457   -9.6161    1.1086 H   0  0  0  0  0  0  0  0  0  0  0  0
   19.4500  -12.5162   -4.3967 C   0  0  0  0  0  0  0  0  0  0  0  0
   19.6055  -13.2878   -3.0666 C   0  0  0  0  0  0  0  0  0  0  0  0
   19.4685  -14.7039   -3.2725 O   0  0  0  0  0  0  0  0  0  0  0  0
   20.9646  -13.0103   -2.3978 C   0  0  0  0  0  0  0  0  0  0  0  0
   22.0175  -13.7226   -3.0436 O   0  0  0  0  0  0  0  0  0  0  0  0
   21.2643  -11.6347   -2.2779 O   0  0  0  0  0  0  0  0  0  0  0  0
   21.2746  -10.9410   -3.5233 C   0  0  0  0  0  0  0  0  0  0  0  0
   19.9090  -11.0442   -4.2266 C   0  0  0  0  0  0  0  0  0  0  0  0
   19.9775  -10.3635   -5.4911 O   0  0  0  0  0  0  0  0  0  0  0  0
   20.3682  -15.0882   -3.2975 H   0  0  0  0  0  0  0  0  0  0  0  0
   21.9580  -13.5835   -4.0017 H   0  0  0  0  0  0  0  0  0  0  0  0
   20.2469  -11.0032   -6.1742 H   0  0  0  0  0  0  0  0  0  0  0  0
   21.6654   -9.4787   -3.2469 C   0  0  0  0  0  0  0  0  0  0  0  0
   20.5337   -8.6226   -3.1461 O   0  0  0  0  0  0  0  0  0  0  0  0
   19.9200   -9.0399   -2.5055 H   0  0  0  0  0  0  0  0  0  0  0  0
 14 15  1  0
 14 16  1  0
  2  3  1  0
  2  9  1  0
  2 15  1  0
  3  4  1  0
  4  5  1  0
  4  1  1  0
  1 17  1  0
 17 18  1  0
 17 24  1  0
 18 19  1  0
 18 20  1  0
 19 26  1  0
 20 21  1  0
 20 22  1  0
 21 27  1  0
 22 23  1  0
 23 24  1  0
 23 29  1  0
 29 30  1  0
 30 31  1  0
 24 25  1  0
 25 28  1  0
  5  6  1  0
  5  7  1  0
  6 11  1  0
  7  8  1  0
  7  9  1  0
  8 12  1  0
  9 10  1  0
 10 13  1  0
M  END
> <minimizedAffinity>
-4.44787

> <CNNscore>
0.9152327776

> <CNNaffinity>
2.7793676853

> <CNN_VS>
2.5437684059

> <CNNaffinity_variance>
0.8594533801

$$$$



 31 32  0  0  0  0  0  0  0  0999 V2000
   19.1218   -9.3402   -1.4503 O   0  0  0  0  0  0  0  0  0  0  0  0
   19.7254   -7.5573    1.6543 C   0  0  0  0  0  0  0  0  0  0  0  0
   19.2483   -7.8422    0.3300 O   0  0  0  0  0  0  0  0  0  0  0  0
   19.6959   -9.1022   -0.1638 C   0  0  0  0  0  0  0  0  0  0  0  0
   21.2367   -9.1076   -0.2884 C   0  0  0  0  0  0  0  0  0  0  0  0
   21.7386  -10.3635   -0.7681 O   0  0  0  0  0  0  0  0  0  0  0  0
   21.8464   -8.7850    1.0930 C   0  0  0  0  0  0  0  0  0  0  0  0
   23.2751   -8.7006    1.0381 O   0  0  0  0  0  0  0  0  0  0  0  0
   21.2587   -7.4834    1.6601 C   0  0  0  0  0  0  0  0  0  0  0  0
   21.7401   -7.2218    2.9804 O   0  0  0  0  0  0  0  0  0  0  0  0
   21.6366  -11.0299   -0.0678 H   0  0  0  0  0  0  0  0  0  0  0  0
   23.5170   -7.9900    0.4167 H   0  0  0  0  0  0  0  0  0  0  0  0
   21.9393   -8.0685    3.4171 H   0  0  0  0  0  0  0  0  0  0  0  0
   18.0806   -5.8311    1.2014 O   0  0  0  0  0  0  0  0  0  0  0  0
   19.1193   -6.2206    2.1033 C   0  0  0  0  0  0  0  0  0  0  0  0
   17.8287   -4.9245    1.4485 H   0  0  0  0  0  0  0  0  0  0  0  0
   18.5600  -10.6585   -1.6424 C   0  0  0  0  0  0  0  0  0  0  0  0
   19.0735  -11.3202   -2.9413 C   0  0  0  0  0  0  0  0  0  0  0  0
   20.4324  -11.7645   -2.7919 O   0  0  0  0  0  0  0  0  0  0  0  0
   18.2002  -12.5179   -3.3590 C   0  0  0  0  0  0  0  0  0  0  0  0
   18.4710  -13.6645   -2.5556 O   0  0  0  0  0  0  0  0  0  0  0  0
   16.8188  -12.2235   -3.3964 O   0  0  0  0  0  0  0  0  0  0  0  0
   16.2999  -11.7555   -2.1539 C   0  0  0  0  0  0  0  0  0  0  0  0
   17.0209  -10.4732   -1.6998 C   0  0  0  0  0  0  0  0  0  0  0  0
   16.4915  -10.0599   -0.4286 O   0  0  0  0  0  0  0  0  0  0  0  0
   20.4121  -12.7276   -2.6195 H   0  0  0  0  0  0  0  0  0  0  0  0
   18.4572  -13.4105   -1.6196 H   0  0  0  0  0  0  0  0  0  0  0  0
   17.0229  -10.4694    0.2774 H   0  0  0  0  0  0  0  0  0  0  0  0
   14.7880  -11.5291   -2.3279 C   0  0  0  0  0  0  0  0  0  0  0  0
   14.0144  -12.2867   -1.4052 O   0  0  0  0  0  0  0  0  0  0  0  0
   14.3836  -12.1094   -0.5145 H   0  0  0  0  0  0  0  0  0  0  0  0
 14 15  1  0
 14 16  1  0
  2  3  1  0
  2  9  1  0
  2 15  1  0
  3  4  1  0
  4  5  1  0
  4  1  1  0
  1 17  1  0
 17 18  1  0
 17 24  1  0
 18 19  1  0
 18 20  1  0
 19 26  1  0
 20 21  1  0
 20 22  1  0
 21 27  1  0
 22 23  1  0
 23 24  1  0
 23 29  1  0
 29 30  1  0
 30 31  1  0
 24 25  1  0
 25 28  1  0
  5  6  1  0
  5  7  1  0
  6 11  1  0
  7  8  1  0
  7  9  1  0
  8 12  1  0
  9 10  1  0
 10 13  1  0
M  END
> <minimizedAffinity>
-4.13353

> <CNNscore>
0.8520301580

> <CNNaffinity>
3.0040934086

> <CNN_VS>
2.5595781803

> <CNNaffinity_variance>
0.4444017112

$$$$



 31 32  0  0  0  0  0  0  0  0999 V2000
   19.0367  -10.2152   -2.9960 O   0  0  0  0  0  0  0  0  0  0  0  0
   16.6887  -12.6488   -4.3172 C   0  0  0  0  0  0  0  0  0  0  0  0
   17.6289  -11.5641   -4.2718 O   0  0  0  0  0  0  0  0  0  0  0  0
   18.0537  -11.2508   -2.9477 C   0  0  0  0  0  0  0  0  0  0  0  0
   16.8518  -10.7686   -2.1036 C   0  0  0  0  0  0  0  0  0  0  0  0
   17.2264  -10.4551   -0.7543 O   0  0  0  0  0  0  0  0  0  0  0  0
   15.7680  -11.8684   -2.1117 C   0  0  0  0  0  0  0  0  0  0  0  0
   14.5898  -11.4603   -1.4071 O   0  0  0  0  0  0  0  0  0  0  0  0
   15.4125  -12.2757   -3.5501 C   0  0  0  0  0  0  0  0  0  0  0  0
   14.4819  -13.3605   -3.5734 O   0  0  0  0  0  0  0  0  0  0  0  0
   17.4253  -11.2822   -0.2840 H   0  0  0  0  0  0  0  0  0  0  0  0
   14.2312  -10.6658   -1.8427 H   0  0  0  0  0  0  0  0  0  0  0  0
   14.6102  -13.9035   -2.7759 H   0  0  0  0  0  0  0  0  0  0  0  0
   15.2022  -12.2133   -6.1857 O   0  0  0  0  0  0  0  0  0  0  0  0
   16.3672  -12.9412   -5.7893 C   0  0  0  0  0  0  0  0  0  0  0  0
   14.9652  -12.5369   -7.0719 H   0  0  0  0  0  0  0  0  0  0  0  0
   20.3665  -10.6051   -2.5835 C   0  0  0  0  0  0  0  0  0  0  0  0
   20.7789   -9.9314   -1.2551 C   0  0  0  0  0  0  0  0  0  0  0  0
   20.1010  -10.5328   -0.1392 O   0  0  0  0  0  0  0  0  0  0  0  0
   22.2984  -10.0122   -1.0183 C   0  0  0  0  0  0  0  0  0  0  0  0
   22.6894  -11.3144   -0.5888 O   0  0  0  0  0  0  0  0  0  0  0  0
   23.0657   -9.5761   -2.1217 O   0  0  0  0  0  0  0  0  0  0  0  0
   22.8022  -10.2977   -3.3225 C   0  0  0  0  0  0  0  0  0  0  0  0
   21.3220  -10.1772   -3.7282 C   0  0  0  0  0  0  0  0  0  0  0  0
   21.0958  -10.9484   -4.9203 O   0  0  0  0  0  0  0  0  0  0  0  0
   20.7251  -11.1552    0.2862 H   0  0  0  0  0  0  0  0  0  0  0  0
   22.2964  -11.9776   -1.1775 H   0  0  0  0  0  0  0  0  0  0  0  0
   20.8310  -11.8493   -4.6621 H   0  0  0  0  0  0  0  0  0  0  0  0
   23.7397   -9.7556   -4.4155 C   0  0  0  0  0  0  0  0  0  0  0  0
   23.8082  -10.6132   -5.5484 O   0  0  0  0  0  0  0  0  0  0  0  0
   22.8842  -10.7998   -5.8178 H   0  0  0  0  0  0  0  0  0  0  0  0
 14 15  1  0
 14 16  1  0
  2  3  1  0
  2  9  1  0
  2 15  1  0
  3  4  1  0
  4  5  1  0
  4  1  1  0
  1 17  1  0
 17 18  1  0
 17 24  1  0
 18 19  1  0
 18 20  1  0
 19 26  1  0
 20 21  1  0
 20 22  1  0
 21 27  1  0
 22 23  1  0
 23 24  1  0
 23 29  1  0
 29 30  1  0
 30 31  1  0
 24 25  1  0
 25 28  1  0
  5  6  1  0
  5  7  1  0
  6 11  1  0
  7  8  1  0
  7  9  1  0
  8 12  1  0
  9 10  1  0
 10 13  1  0
M  END
> <minimizedAffinity>
-3.81093

> <CNNscore>
0.8373734355

> <CNNaffinity>
3.1700422764

> <CNN_VS>
2.6545093060

> <CNNaffinity_variance>
0.2837627530

$$$$



 31 32  0  0  0  0  0  0  0  0999 V2000
   17.3677   -9.9618   -1.2095 O   0  0  0  0  0  0  0  0  0  0  0  0
   17.1301  -12.2273   -4.0367 C   0  0  0  0  0  0  0  0  0  0  0  0
   17.4617  -11.0662   -3.2591 O   0  0  0  0  0  0  0  0  0  0  0  0
   16.9347  -11.1136   -1.9356 C   0  0  0  0  0  0  0  0  0  0  0  0
   15.3896  -11.1331   -1.9787 C   0  0  0  0  0  0  0  0  0  0  0  0
   14.8102  -11.1967   -0.6675 O   0  0  0  0  0  0  0  0  0  0  0  0
   14.9330  -12.3445   -2.8202 C   0  0  0  0  0  0  0  0  0  0  0  0
   13.5088  -12.3856   -2.9655 O   0  0  0  0  0  0  0  0  0  0  0  0
   15.6079  -12.3374   -4.2007 C   0  0  0  0  0  0  0  0  0  0  0  0
   15.2711  -13.5038   -4.9554 O   0  0  0  0  0  0  0  0  0  0  0  0
   14.9669  -12.0822   -0.2982 H   0  0  0  0  0  0  0  0  0  0  0  0
   13.2221  -11.5690   -3.4132 H   0  0  0  0  0  0  0  0  0  0  0  0
   15.0967  -14.2379   -4.3406 H   0  0  0  0  0  0  0  0  0  0  0  0
   19.0101  -11.3263   -5.2795 O   0  0  0  0  0  0  0  0  0  0  0  0
   17.8121  -12.0964   -5.4055 C   0  0  0  0  0  0  0  0  0  0  0  0
   19.3246  -11.1586   -6.1846 H   0  0  0  0  0  0  0  0  0  0  0  0
   18.1627  -10.2352   -0.0332 C   0  0  0  0  0  0  0  0  0  0  0  0
   19.1945   -9.1170    0.2380 C   0  0  0  0  0  0  0  0  0  0  0  0
   18.5559   -7.9427    0.7668 O   0  0  0  0  0  0  0  0  0  0  0  0
   20.2906   -9.5732    1.2187 C   0  0  0  0  0  0  0  0  0  0  0  0
   19.8131   -9.5886    2.5622 O   0  0  0  0  0  0  0  0  0  0  0  0
   20.8882  -10.8038    0.8649 O   0  0  0  0  0  0  0  0  0  0  0  0
   19.9605  -11.8812    0.7617 C   0  0  0  0  0  0  0  0  0  0  0  0
   18.8816  -11.5846   -0.2957 C   0  0  0  0  0  0  0  0  0  0  0  0
   17.9502  -12.6789   -0.3386 O   0  0  0  0  0  0  0  0  0  0  0  0
   18.6918   -7.9425    1.7360 H   0  0  0  0  0  0  0  0  0  0  0  0
   18.9649  -10.0578    2.5955 H   0  0  0  0  0  0  0  0  0  0  0  0
   17.2248  -12.4943    0.2843 H   0  0  0  0  0  0  0  0  0  0  0  0
   20.7527  -13.1570    0.4268 C   0  0  0  0  0  0  0  0  0  0  0  0
   20.0670  -14.3413    0.8154 O   0  0  0  0  0  0  0  0  0  0  0  0
   19.1618  -14.2784    0.4442 H   0  0  0  0  0  0  0  0  0  0  0  0
 14 15  1  0
 14 16  1  0
  2  3  1  0
  2  9  1  0
  2 15  1  0
  3  4  1  0
  4  5  1  0
  4  1  1  0
  1 17  1  0
 17 18  1  0
 17 24  1  0
 18 19  1  0
 18 20  1  0
 19 26  1  0
 20 21  1  0
 20 22  1  0
 21 27  1  0
 22 23  1  0
 23 24  1  0
 23 29  1  0
 29 30  1  0
 30 31  1  0
 24 25  1  0
 25 28  1  0
  5  6  1  0
  5  7  1  0
  6 11  1  0
  7  8  1  0
  7  9  1  0
  8 12  1  0
  9 10  1  0
 10 13  1  0
M  END
> <minimizedAffinity>
-5.00298

> <CNNscore>
0.8226870894

> <CNNaffinity>
3.1332054138

> <CNN_VS>
2.5776476860

> <CNNaffinity_variance>
0.6137600541

$$$$



 31 32  0  0  0  0  0  0  0  0999 V2000
   20.5707   -9.4983   -2.7440 O   0  0  0  0  0  0  0  0  0  0  0  0
   17.3038  -10.6131   -1.6188 C   0  0  0  0  0  0  0  0  0  0  0  0
   18.6560  -10.1309   -1.5766 O   0  0  0  0  0  0  0  0  0  0  0  0
   19.2591  -10.0517   -2.8656 C   0  0  0  0  0  0  0  0  0  0  0  0
   19.3606  -11.4608   -3.4929 C   0  0  0  0  0  0  0  0  0  0  0  0
   19.9485  -11.4319   -4.8016 O   0  0  0  0  0  0  0  0  0  0  0  0
   17.9461  -12.0762   -3.5598 C   0  0  0  0  0  0  0  0  0  0  0  0
   17.9714  -13.4161   -4.0649 O   0  0  0  0  0  0  0  0  0  0  0  0
   17.2682  -12.0409   -2.1812 C   0  0  0  0  0  0  0  0  0  0  0  0
   15.9221  -12.5176   -2.2461 O   0  0  0  0  0  0  0  0  0  0  0  0
   19.3154  -11.0310   -5.4208 H   0  0  0  0  0  0  0  0  0  0  0  0
   18.5197  -13.9585   -3.4693 H   0  0  0  0  0  0  0  0  0  0  0  0
   15.5639  -12.3316   -3.1317 H   0  0  0  0  0  0  0  0  0  0  0  0
   15.3252  -10.3826   -0.2322 O   0  0  0  0  0  0  0  0  0  0  0  0
   16.7404  -10.5814   -0.1914 C   0  0  0  0  0  0  0  0  0  0  0  0
   15.0427  -10.2335    0.6867 H   0  0  0  0  0  0  0  0  0  0  0  0
   20.7078   -8.1292   -3.1883 C   0  0  0  0  0  0  0  0  0  0  0  0
   21.7908   -7.9836   -4.2813 C   0  0  0  0  0  0  0  0  0  0  0  0
   21.3250   -8.4965   -5.5408 O   0  0  0  0  0  0  0  0  0  0  0  0
   22.2231   -6.5175   -4.4689 C   0  0  0  0  0  0  0  0  0  0  0  0
   21.2492   -5.7776   -5.2019 O   0  0  0  0  0  0  0  0  0  0  0  0
   22.5661   -5.8710   -3.2602 O   0  0  0  0  0  0  0  0  0  0  0  0
   21.5156   -5.8652   -2.2966 C   0  0  0  0  0  0  0  0  0  0  0  0
   21.0879   -7.2991   -1.9341 C   0  0  0  0  0  0  0  0  0  0  0  0
   20.0049   -7.2434   -0.9902 O   0  0  0  0  0  0  0  0  0  0  0  0
   21.0445   -7.7337   -6.0859 H   0  0  0  0  0  0  0  0  0  0  0  0
   20.3719   -5.9359   -4.8196 H   0  0  0  0  0  0  0  0  0  0  0  0
   19.1641   -7.2415   -1.4816 H   0  0  0  0  0  0  0  0  0  0  0  0
   22.0088   -5.0877   -1.0638 C   0  0  0  0  0  0  0  0  0  0  0  0
   22.4102   -5.9467   -0.0033 O   0  0  0  0  0  0  0  0  0  0  0  0
   23.0339   -6.5980   -0.3879 H   0  0  0  0  0  0  0  0  0  0  0  0
 14 15  1  0
 14 16  1  0
  2  3  1  0
  2  9  1  0
  2 15  1  0
  3  4  1  0
  4  5  1  0
  4  1  1  0
  1 17  1  0
 17 18  1  0
 17 24  1  0
 18 19  1  0
 18 20  1  0
 19 26  1  0
 20 21  1  0
 20 22  1  0
 21 27  1  0
 22 23  1  0
 23 24  1  0
 23 29  1  0
 29 30  1  0
 30 31  1  0
 24 25  1  0
 25 28  1  0
  5  6  1  0
  5  7  1  0
  6 11  1  0
  7  8  1  0
  7  9  1  0
  8 12  1  0
  9 10  1  0
 10 13  1  0
M  END
> <minimizedAffinity>
-3.87036

> <CNNscore>
0.8122284412

> <CNNaffinity>
2.8181736469

> <CNN_VS>
2.2890007496

> <CNNaffinity_variance>
0.4497958124

$$$$



 31 32  0  0  0  0  0  0  0  0999 V2000
   15.6750  -13.0539   -3.8169 O   0  0  0  0  0  0  0  0  0  0  0  0
   18.3761  -10.7365   -3.0988 C   0  0  0  0  0  0  0  0  0  0  0  0
   17.6947  -11.9389   -3.4893 O   0  0  0  0  0  0  0  0  0  0  0  0
   16.2797  -11.8497   -3.3419 C   0  0  0  0  0  0  0  0  0  0  0  0
   15.9115  -11.6515   -1.8538 C   0  0  0  0  0  0  0  0  0  0  0  0
   14.4947  -11.5399   -1.6548 O   0  0  0  0  0  0  0  0  0  0  0  0
   16.6222  -10.3838   -1.3323 C   0  0  0  0  0  0  0  0  0  0  0  0
   16.3849  -10.1766    0.0648 O   0  0  0  0  0  0  0  0  0  0  0  0
   18.1320  -10.4492   -1.6108 C   0  0  0  0  0  0  0  0  0  0  0  0
   18.7901   -9.2412   -1.2220 O   0  0  0  0  0  0  0  0  0  0  0  0
   14.1955  -10.6838   -2.0047 H   0  0  0  0  0  0  0  0  0  0  0  0
   16.7263  -10.9483    0.5520 H   0  0  0  0  0  0  0  0  0  0  0  0
   18.1637   -8.5006   -1.3028 H   0  0  0  0  0  0  0  0  0  0  0  0
   20.5420  -11.3184   -2.1711 O   0  0  0  0  0  0  0  0  0  0  0  0
   19.8744  -10.9259   -3.3729 C   0  0  0  0  0  0  0  0  0  0  0  0
   21.4949  -11.2901   -2.3650 H   0  0  0  0  0  0  0  0  0  0  0  0
   15.6629  -14.1523   -2.8769 C   0  0  0  0  0  0  0  0  0  0  0  0
   16.7877  -15.1718   -3.1669 C   0  0  0  0  0  0  0  0  0  0  0  0
   18.0681  -14.6553   -2.7666 O   0  0  0  0  0  0  0  0  0  0  0  0
   16.5448  -16.5133   -2.4507 C   0  0  0  0  0  0  0  0  0  0  0  0
   16.8537  -16.4248   -1.0615 O   0  0  0  0  0  0  0  0  0  0  0  0
   15.2514  -17.0408   -2.6634 O   0  0  0  0  0  0  0  0  0  0  0  0
   14.2027  -16.1658   -2.2549 C   0  0  0  0  0  0  0  0  0  0  0  0
   14.2721  -14.8264   -3.0108 C   0  0  0  0  0  0  0  0  0  0  0  0
   13.2210  -13.9652   -2.5412 O   0  0  0  0  0  0  0  0  0  0  0  0
   18.2900  -15.0524   -1.9000 H   0  0  0  0  0  0  0  0  0  0  0  0
   16.4262  -15.6386   -0.6875 H   0  0  0  0  0  0  0  0  0  0  0  0
   13.5632  -13.4321   -1.8014 H   0  0  0  0  0  0  0  0  0  0  0  0
   12.8648  -16.8874   -2.4936 C   0  0  0  0  0  0  0  0  0  0  0  0
   12.9974  -18.3035   -2.4647 O   0  0  0  0  0  0  0  0  0  0  0  0
   13.4726  -18.5259   -1.6365 H   0  0  0  0  0  0  0  0  0  0  0  0
 14 15  1  0
 14 16  1  0
  2  3  1  0
  2  9  1  0
  2 15  1  0
  3  4  1  0
  4  5  1  0
  4  1  1  0
  1 17  1  0
 17 18  1  0
 17 24  1  0
 18 19  1  0
 18 20  1  0
 19 26  1  0
 20 21  1  0
 20 22  1  0
 21 27  1  0
 22 23  1  0
 23 24  1  0
 23 29  1  0
 29 30  1  0
 30 31  1  0
 24 25  1  0
 25 28  1  0
  5  6  1  0
  5  7  1  0
  6 11  1  0
  7  8  1  0
  7  9  1  0
  8 12  1  0
  9 10  1  0
 10 13  1  0
M  END
> <minimizedAffinity>
-4.77180

> <CNNscore>
0.8007652760

> <CNNaffinity>
2.9693422318

> <CNN_VS>
2.3777461052

> <CNNaffinity_variance>
0.4093624055

$$$$



 31 32  0  0  0  0  0  0  0  0999 V2000
   18.9445  -10.5857   -0.8636 O   0  0  0  0  0  0  0  0  0  0  0  0
   17.2662  -12.7338   -3.2616 C   0  0  0  0  0  0  0  0  0  0  0  0
   18.2250  -11.8221   -2.7029 O   0  0  0  0  0  0  0  0  0  0  0  0
   17.9097  -11.4313   -1.3689 C   0  0  0  0  0  0  0  0  0  0  0  0
   16.5695  -10.6615   -1.3429 C   0  0  0  0  0  0  0  0  0  0  0  0
   16.1996  -10.2592   -0.0160 O   0  0  0  0  0  0  0  0  0  0  0  0
   15.4705  -11.5597   -1.9510 C   0  0  0  0  0  0  0  0  0  0  0  0
   14.2108  -10.8827   -2.0271 O   0  0  0  0  0  0  0  0  0  0  0  0
   15.8856  -12.0675   -3.3406 C   0  0  0  0  0  0  0  0  0  0  0  0
   14.9225  -12.9783   -3.8757 O   0  0  0  0  0  0  0  0  0  0  0  0
   15.9364  -11.0473    0.4886 H   0  0  0  0  0  0  0  0  0  0  0  0
   14.3186  -10.0960   -2.5919 H   0  0  0  0  0  0  0  0  0  0  0  0
   14.4807  -13.4382   -3.1404 H   0  0  0  0  0  0  0  0  0  0  0  0
   17.1881  -12.2633   -5.6414 O   0  0  0  0  0  0  0  0  0  0  0  0
   17.7506  -13.1385   -4.6607 C   0  0  0  0  0  0  0  0  0  0  0  0
   17.4123  -12.6430   -6.5085 H   0  0  0  0  0  0  0  0  0  0  0  0
   19.6901  -11.1209    0.2536 C   0  0  0  0  0  0  0  0  0  0  0  0
   19.4633  -10.3009    1.5438 C   0  0  0  0  0  0  0  0  0  0  0  0
   18.1641  -10.5632    2.1003 O   0  0  0  0  0  0  0  0  0  0  0  0
   20.5327  -10.6017    2.6103 C   0  0  0  0  0  0  0  0  0  0  0  0
   20.2917  -11.8530    3.2502 O   0  0  0  0  0  0  0  0  0  0  0  0
   21.8562  -10.5129    2.1234 O   0  0  0  0  0  0  0  0  0  0  0  0
   22.1211  -11.3822    1.0251 C   0  0  0  0  0  0  0  0  0  0  0  0
   21.1849  -11.0803   -0.1592 C   0  0  0  0  0  0  0  0  0  0  0  0
   21.4628  -12.0025   -1.2265 O   0  0  0  0  0  0  0  0  0  0  0  0
   18.2795  -11.1978    2.8364 H   0  0  0  0  0  0  0  0  0  0  0  0
   20.1339  -12.5325    2.5764 H   0  0  0  0  0  0  0  0  0  0  0  0
   20.8879  -12.7817   -1.1216 H   0  0  0  0  0  0  0  0  0  0  0  0
   23.6014  -11.2185    0.6388 C   0  0  0  0  0  0  0  0  0  0  0  0
   24.1168  -12.3591   -0.0374 O   0  0  0  0  0  0  0  0  0  0  0  0
   23.4939  -12.5603   -0.7673 H   0  0  0  0  0  0  0  0  0  0  0  0
 14 15  1  0
 14 16  1  0
  2  3  1  0
  2  9  1  0
  2 15  1  0
  3  4  1  0
  4  5  1  0
  4  1  1  0
  1 17  1  0
 17 18  1  0
 17 24  1  0
 18 19  1  0
 18 20  1  0
 19 26  1  0
 20 21  1  0
 20 22  1  0
 21 27  1  0
 22 23  1  0
 23 24  1  0
 23 29  1  0
 29 30  1  0
 30 31  1  0
 24 25  1  0
 25 28  1  0
  5  6  1  0
  5  7  1  0
  6 11  1  0
  7  8  1  0
  7  9  1  0
  8 12  1  0
  9 10  1  0
 10 13  1  0
M  END
> <minimizedAffinity>
-3.78219

> <CNNscore>
0.7947586775

> <CNNaffinity>
3.1147062778

> <CNN_VS>
2.4754397869

> <CNNaffinity_variance>
0.2901006043

$$$$



 31 32  0  0  0  0  0  0  0  0999 V2000
   17.4039   -9.9569   -1.3413 O   0  0  0  0  0  0  0  0  0  0  0  0
   17.1630  -12.3487   -4.0621 C   0  0  0  0  0  0  0  0  0  0  0  0
   17.4965  -11.1540   -3.3383 O   0  0  0  0  0  0  0  0  0  0  0  0
   16.9690  -11.1399   -2.0142 C   0  0  0  0  0  0  0  0  0  0  0  0
   15.4239  -11.1585   -2.0570 C   0  0  0  0  0  0  0  0  0  0  0  0
   14.8439  -11.1611   -0.7445 O   0  0  0  0  0  0  0  0  0  0  0  0
   14.9652  -12.4062   -2.8425 C   0  0  0  0  0  0  0  0  0  0  0  0
   13.5410  -12.4513   -2.9863 O   0  0  0  0  0  0  0  0  0  0  0  0
   15.6406  -12.4634   -4.2216 C   0  0  0  0  0  0  0  0  0  0  0  0
   15.3018  -13.6624   -4.9223 O   0  0  0  0  0  0  0  0  0  0  0  0
   14.9989  -12.0290   -0.3350 H   0  0  0  0  0  0  0  0  0  0  0  0
   13.2560  -11.6554   -3.4710 H   0  0  0  0  0  0  0  0  0  0  0  0
   15.1259  -14.3674   -4.2747 H   0  0  0  0  0  0  0  0  0  0  0  0
   16.8648  -12.0800   -6.4558 O   0  0  0  0  0  0  0  0  0  0  0  0
   17.8456  -12.2818   -5.4352 C   0  0  0  0  0  0  0  0  0  0  0  0
   17.3278  -12.1827   -7.3051 H   0  0  0  0  0  0  0  0  0  0  0  0
   18.3780  -10.1644   -0.2932 C   0  0  0  0  0  0  0  0  0  0  0  0
   17.8761  -11.1677    0.7699 C   0  0  0  0  0  0  0  0  0  0  0  0
   17.9166  -12.5143    0.2685 O   0  0  0  0  0  0  0  0  0  0  0  0
   18.7045  -11.0928    2.0659 C   0  0  0  0  0  0  0  0  0  0  0  0
   19.9665  -11.7391    1.9147 O   0  0  0  0  0  0  0  0  0  0  0  0
   18.8493   -9.7801    2.5683 O   0  0  0  0  0  0  0  0  0  0  0  0
   19.4551   -8.8781    1.6455 C   0  0  0  0  0  0  0  0  0  0  0  0
   18.6314   -8.7752    0.3489 C   0  0  0  0  0  0  0  0  0  0  0  0
   19.2977   -7.8860   -0.5634 O   0  0  0  0  0  0  0  0  0  0  0  0
   18.7220  -12.9397    0.6266 H   0  0  0  0  0  0  0  0  0  0  0  0
   20.3899  -11.4288    1.0991 H   0  0  0  0  0  0  0  0  0  0  0  0
   19.8982   -8.4087   -1.1242 H   0  0  0  0  0  0  0  0  0  0  0  0
   19.5966   -7.5133    2.3418 C   0  0  0  0  0  0  0  0  0  0  0  0
   18.7820   -6.5110    1.7455 O   0  0  0  0  0  0  0  0  0  0  0  0
   17.8759   -6.8807    1.6879 H   0  0  0  0  0  0  0  0  0  0  0  0
 14 15  1  0
 14 16  1  0
  2  3  1  0
  2  9  1  0
  2 15  1  0
  3  4  1  0
  4  5  1  0
  4  1  1  0
  1 17  1  0
 17 18  1  0
 17 24  1  0
 18 19  1  0
 18 20  1  0
 19 26  1  0
 20 21  1  0
 20 22  1  0
 21 27  1  0
 22 23  1  0
 23 24  1  0
 23 29  1  0
 29 30  1  0
 30 31  1  0
 24 25  1  0
 25 28  1  0
  5  6  1  0
  5  7  1  0
  6 11  1  0
  7  8  1  0
  7  9  1  0
  8 12  1  0
  9 10  1  0
 10 13  1  0
M  END
> <minimizedAffinity>
-5.62972

> <CNNscore>
0.7558816671

> <CNNaffinity>
3.0869338512

> <CNN_VS>
2.3333566189

> <CNNaffinity_variance>
0.7039139867

$$$$



 31 32  0  0  0  0  0  0  0  0999 V2000
   19.7384  -12.1475   -4.2108 O   0  0  0  0  0  0  0  0  0  0  0  0
   17.1084  -10.9571   -2.0091 C   0  0  0  0  0  0  0  0  0  0  0  0
   18.3496  -11.5349   -2.4430 O   0  0  0  0  0  0  0  0  0  0  0  0
   18.4525  -11.6322   -3.8614 C   0  0  0  0  0  0  0  0  0  0  0  0
   17.3614  -12.5799   -4.4100 C   0  0  0  0  0  0  0  0  0  0  0  0
   17.4136  -12.6989   -5.8391 O   0  0  0  0  0  0  0  0  0  0  0  0
   15.9790  -12.0499   -3.9716 C   0  0  0  0  0  0  0  0  0  0  0  0
   14.9194  -12.9209   -4.3837 O   0  0  0  0  0  0  0  0  0  0  0  0
   15.9314  -11.8383   -2.4503 C   0  0  0  0  0  0  0  0  0  0  0  0
   14.6919  -11.2563   -2.0401 O   0  0  0  0  0  0  0  0  0  0  0  0
   17.1086  -11.8648   -6.2344 H   0  0  0  0  0  0  0  0  0  0  0  0
   15.0629  -13.7938   -3.9749 H   0  0  0  0  0  0  0  0  0  0  0  0
   14.3452  -10.7082   -2.7658 H   0  0  0  0  0  0  0  0  0  0  0  0
   16.0633  -10.0178   -0.0302 O   0  0  0  0  0  0  0  0  0  0  0  0
   17.1470  -10.8349   -0.4796 C   0  0  0  0  0  0  0  0  0  0  0  0
   16.2131   -9.8610    0.9181 H   0  0  0  0  0  0  0  0  0  0  0  0
   20.6944  -11.1648   -4.6699 C   0  0  0  0  0  0  0  0  0  0  0  0
   20.7936   -9.9621   -3.7044 C   0  0  0  0  0  0  0  0  0  0  0  0
   21.5137  -10.3158   -2.5116 O   0  0  0  0  0  0  0  0  0  0  0  0
   21.4829   -8.7528   -4.3632 C   0  0  0  0  0  0  0  0  0  0  0  0
   22.8955   -8.9339   -4.4335 O   0  0  0  0  0  0  0  0  0  0  0  0
   20.9392   -8.4093   -5.6213 O   0  0  0  0  0  0  0  0  0  0  0  0
   20.9830   -9.4704   -6.5723 C   0  0  0  0  0  0  0  0  0  0  0  0
   20.2064  -10.7000   -6.0671 C   0  0  0  0  0  0  0  0  0  0  0  0
   20.3088  -11.7542   -7.0393 O   0  0  0  0  0  0  0  0  0  0  0  0
   22.4279   -9.9796   -2.6067 H   0  0  0  0  0  0  0  0  0  0  0  0
   23.0884   -9.8098   -4.8028 H   0  0  0  0  0  0  0  0  0  0  0  0
   21.0851  -12.3013   -6.8239 H   0  0  0  0  0  0  0  0  0  0  0  0
   20.4124   -8.9403   -7.8992 C   0  0  0  0  0  0  0  0  0  0  0  0
   19.9275   -7.6074   -7.7893 O   0  0  0  0  0  0  0  0  0  0  0  0
   20.6442   -7.0789   -7.3792 H   0  0  0  0  0  0  0  0  0  0  0  0
 14 15  1  0
 14 16  1  0
  2  3  1  0
  2  9  1  0
  2 15  1  0
  3  4  1  0
  4  5  1  0
  4  1  1  0
  1 17  1  0
 17 18  1  0
 17 24  1  0
 18 19  1  0
 18 20  1  0
 19 26  1  0
 20 21  1  0
 20 22  1  0
 21 27  1  0
 22 23  1  0
 23 24  1  0
 23 29  1  0
 29 30  1  0
 30 31  1  0
 24 25  1  0
 25 28  1  0
  5  6  1  0
  5  7  1  0
  6 11  1  0
  7  8  1  0
  7  9  1  0
  8 12  1  0
  9 10  1  0
 10 13  1  0
M  END
> <minimizedAffinity>
-4.15084

> <CNNscore>
0.7481955290

> <CNNaffinity>
3.0501425266

> <CNN_VS>
2.2821030617

> <CNNaffinity_variance>
0.4719101489

$$$$



 31 32  0  0  0  0  0  0  0  0999 V2000
   21.0704  -10.0685   -3.0507 O   0  0  0  0  0  0  0  0  0  0  0  0
   17.6629  -10.6497   -1.9404 C   0  0  0  0  0  0  0  0  0  0  0  0
   19.0964  -10.5645   -1.9165 O   0  0  0  0  0  0  0  0  0  0  0  0
   19.6535  -10.2012   -3.1771 C   0  0  0  0  0  0  0  0  0  0  0  0
   19.3391  -11.2878   -4.2306 C   0  0  0  0  0  0  0  0  0  0  0  0
   19.8669  -10.9596   -5.5240 O   0  0  0  0  0  0  0  0  0  0  0  0
   17.8080  -11.4698   -4.3127 C   0  0  0  0  0  0  0  0  0  0  0  0
   17.4438  -12.5166   -5.2197 O   0  0  0  0  0  0  0  0  0  0  0  0
   17.2139  -11.7414   -2.9218 C   0  0  0  0  0  0  0  0  0  0  0  0
   15.7870  -11.8154   -2.9660 O   0  0  0  0  0  0  0  0  0  0  0  0
   19.3490  -10.2265   -5.8971 H   0  0  0  0  0  0  0  0  0  0  0  0
   17.8403  -13.3486   -4.9035 H   0  0  0  0  0  0  0  0  0  0  0  0
   15.4644  -11.2542   -3.6928 H   0  0  0  0  0  0  0  0  0  0  0  0
   16.4148   -9.8753   -0.0084 O   0  0  0  0  0  0  0  0  0  0  0  0
   17.1795  -10.9700   -0.5193 C   0  0  0  0  0  0  0  0  0  0  0  0
   16.2527  -10.0690    0.9311 H   0  0  0  0  0  0  0  0  0  0  0  0
   21.5674   -8.7108   -3.0567 C   0  0  0  0  0  0  0  0  0  0  0  0
   20.8124   -7.8160   -2.0477 C   0  0  0  0  0  0  0  0  0  0  0  0
   21.2125   -8.1086   -0.6984 O   0  0  0  0  0  0  0  0  0  0  0  0
   21.0441   -6.3187   -2.3232 C   0  0  0  0  0  0  0  0  0  0  0  0
   22.3315   -5.9005   -1.8751 O   0  0  0  0  0  0  0  0  0  0  0  0
   20.8163   -5.9503   -3.6681 O   0  0  0  0  0  0  0  0  0  0  0  0
   21.6227   -6.6652   -4.6013 C   0  0  0  0  0  0  0  0  0  0  0  0
   21.3738   -8.1812   -4.5019 C   0  0  0  0  0  0  0  0  0  0  0  0
   22.2326   -8.8618   -5.4326 O   0  0  0  0  0  0  0  0  0  0  0  0
   21.8558   -7.4236   -0.4249 H   0  0  0  0  0  0  0  0  0  0  0  0
   23.0018   -6.5205   -2.2022 H   0  0  0  0  0  0  0  0  0  0  0  0
   23.0651   -9.0867   -4.9801 H   0  0  0  0  0  0  0  0  0  0  0  0
   21.3089   -6.1261   -6.0079 C   0  0  0  0  0  0  0  0  0  0  0  0
   20.5151   -7.0265   -6.7713 O   0  0  0  0  0  0  0  0  0  0  0  0
   19.7457   -7.2675   -6.2135 H   0  0  0  0  0  0  0  0  0  0  0  0
 14 15  1  0
 14 16  1  0
  2  3  1  0
  2  9  1  0
  2 15  1  0
  3  4  1  0
  4  5  1  0
  4  1  1  0
  1 17  1  0
 17 18  1  0
 17 24  1  0
 18 19  1  0
 18 20  1  0
 19 26  1  0
 20 21  1  0
 20 22  1  0
 21 27  1  0
 22 23  1  0
 23 24  1  0
 23 29  1  0
 29 30  1  0
 30 31  1  0
 24 25  1  0
 25 28  1  0
  5  6  1  0
  5  7  1  0
  6 11  1  0
  7  8  1  0
  7  9  1  0
  8 12  1  0
  9 10  1  0
 10 13  1  0
M  END
> <minimizedAffinity>
-3.92915

> <CNNscore>
0.7399439216

> <CNNaffinity>
2.7737836838

> <CNN_VS>
2.0524444580

> <CNNaffinity_variance>
0.5672530532

$$$$



 31 32  0  0  0  0  0  0  0  0999 V2000
   19.0774  -10.2829   -2.9770 O   0  0  0  0  0  0  0  0  0  0  0  0
   16.4167  -12.4436   -4.1744 C   0  0  0  0  0  0  0  0  0  0  0  0
   17.4495  -11.4456   -4.1718 O   0  0  0  0  0  0  0  0  0  0  0  0
   18.0146  -11.2328   -2.8806 C   0  0  0  0  0  0  0  0  0  0  0  0
   16.9386  -10.6916   -1.9117 C   0  0  0  0  0  0  0  0  0  0  0  0
   17.4561  -10.4756   -0.5908 O   0  0  0  0  0  0  0  0  0  0  0  0
   15.7651  -11.6941   -1.8647 C   0  0  0  0  0  0  0  0  0  0  0  0
   14.6939  -11.2220   -1.0397 O   0  0  0  0  0  0  0  0  0  0  0  0
   15.2505  -12.0009   -3.2798 C   0  0  0  0  0  0  0  0  0  0  0  0
   14.2291  -13.0008   -3.2613 O   0  0  0  0  0  0  0  0  0  0  0  0
   17.6214  -11.3381   -0.1740 H   0  0  0  0  0  0  0  0  0  0  0  0
   14.3703  -10.3801   -1.4086 H   0  0  0  0  0  0  0  0  0  0  0  0
   14.3782  -13.5901   -2.5011 H   0  0  0  0  0  0  0  0  0  0  0  0
   15.3983  -13.9492   -5.7827 O   0  0  0  0  0  0  0  0  0  0  0  0
   15.9430  -12.6371   -5.6215 C   0  0  0  0  0  0  0  0  0  0  0  0
   15.2434  -14.0664   -6.7359 H   0  0  0  0  0  0  0  0  0  0  0  0
   20.4107  -10.8406   -2.9370 C   0  0  0  0  0  0  0  0  0  0  0  0
   20.7110  -11.7067   -4.1813 C   0  0  0  0  0  0  0  0  0  0  0  0
   20.9343  -10.8855   -5.3399 O   0  0  0  0  0  0  0  0  0  0  0  0
   21.9381  -12.6121   -3.9676 C   0  0  0  0  0  0  0  0  0  0  0  0
   23.1537  -11.8740   -4.0710 O   0  0  0  0  0  0  0  0  0  0  0  0
   21.8850  -13.3619   -2.7712 O   0  0  0  0  0  0  0  0  0  0  0  0
   21.7619  -12.5602   -1.5989 C   0  0  0  0  0  0  0  0  0  0  0  0
   20.4864  -11.6994   -1.6473 C   0  0  0  0  0  0  0  0  0  0  0  0
   20.4235  -10.8832   -0.4655 O   0  0  0  0  0  0  0  0  0  0  0  0
   21.9014  -10.8210   -5.4755 H   0  0  0  0  0  0  0  0  0  0  0  0
   23.0912  -11.0753   -3.5242 H   0  0  0  0  0  0  0  0  0  0  0  0
   20.8634  -10.0342   -0.6503 H   0  0  0  0  0  0  0  0  0  0  0  0
   21.7707  -13.4997   -0.3804 C   0  0  0  0  0  0  0  0  0  0  0  0
   22.1738  -12.8391    0.8133 O   0  0  0  0  0  0  0  0  0  0  0  0
   21.6243  -12.0307    0.8882 H   0  0  0  0  0  0  0  0  0  0  0  0
 14 15  1  0
 14 16  1  0
  2  3  1  0
  2  9  1  0
  2 15  1  0
  3  4  1  0
  4  5  1  0
  4  1  1  0
  1 17  1  0
 17 18  1  0
 17 24  1  0
 18 19  1  0
 18 20  1  0
 19 26  1  0
 20 21  1  0
 20 22  1  0
 21 27  1  0
 22 23  1  0
 23 24  1  0
 23 29  1  0
 29 30  1  0
 30 31  1  0
 24 25  1  0
 25 28  1  0
  5  6  1  0
  5  7  1  0
  6 11  1  0
  7  8  1  0
  7  9  1  0
  8 12  1  0
  9 10  1  0
 10 13  1  0
M  END
> <minimizedAffinity>
-3.74468

> <CNNscore>
0.7391947508

> <CNNaffinity>
2.8943188190

> <CNN_VS>
2.1394653320

> <CNNaffinity_variance>
0.5601137280

$$$$



 31 32  0  0  0  0  0  0  0  0999 V2000
   17.8162  -11.3289   -1.8508 O   0  0  0  0  0  0  0  0  0  0  0  0
   20.3737   -8.7542   -1.9565 C   0  0  0  0  0  0  0  0  0  0  0  0
   19.7394  -10.0357   -2.0912 O   0  0  0  0  0  0  0  0  0  0  0  0
   18.3956  -10.0443   -1.6160 C   0  0  0  0  0  0  0  0  0  0  0  0
   18.3658   -9.7452   -0.0997 C   0  0  0  0  0  0  0  0  0  0  0  0
   17.0301   -9.7273    0.4244 O   0  0  0  0  0  0  0  0  0  0  0  0
   19.0525   -8.3851    0.1504 C   0  0  0  0  0  0  0  0  0  0  0  0
   19.1274   -8.0749    1.5466 O   0  0  0  0  0  0  0  0  0  0  0  0
   20.4554   -8.3570   -0.4760 C   0  0  0  0  0  0  0  0  0  0  0  0
   21.0661   -7.0720   -0.3377 O   0  0  0  0  0  0  0  0  0  0  0  0
   16.5766   -8.9311    0.0996 H   0  0  0  0  0  0  0  0  0  0  0  0
   19.6455   -8.7719    1.9887 H   0  0  0  0  0  0  0  0  0  0  0  0
   20.3697   -6.3924   -0.3159 H   0  0  0  0  0  0  0  0  0  0  0  0
   22.7384   -9.1087   -1.5402 O   0  0  0  0  0  0  0  0  0  0  0  0
   21.7784   -8.8497   -2.5676 C   0  0  0  0  0  0  0  0  0  0  0  0
   23.6140   -9.0227   -1.9552 H   0  0  0  0  0  0  0  0  0  0  0  0
   16.6093  -11.3268   -2.6469 C   0  0  0  0  0  0  0  0  0  0  0  0
   15.4118  -11.9324   -1.8802 C   0  0  0  0  0  0  0  0  0  0  0  0
   14.9251  -11.0214   -0.8804 O   0  0  0  0  0  0  0  0  0  0  0  0
   14.2531  -12.3017   -2.8250 C   0  0  0  0  0  0  0  0  0  0  0  0
   13.5272  -11.1449   -3.2349 O   0  0  0  0  0  0  0  0  0  0  0  0
   14.6543  -13.0834   -3.9316 O   0  0  0  0  0  0  0  0  0  0  0  0
   15.6542  -12.4638   -4.7369 C   0  0  0  0  0  0  0  0  0  0  0  0
   16.9210  -12.1643   -3.9150 C   0  0  0  0  0  0  0  0  0  0  0  0
   17.8847  -11.5086   -4.7565 O   0  0  0  0  0  0  0  0  0  0  0  0
   14.1317  -10.5786   -1.2441 H   0  0  0  0  0  0  0  0  0  0  0  0
   14.1502  -10.4673   -3.5408 H   0  0  0  0  0  0  0  0  0  0  0  0
   17.7536  -10.5460   -4.6878 H   0  0  0  0  0  0  0  0  0  0  0  0
   15.9510  -13.3972   -5.9236 C   0  0  0  0  0  0  0  0  0  0  0  0
   15.1381  -13.1133   -7.0560 O   0  0  0  0  0  0  0  0  0  0  0  0
   15.2166  -12.1510   -7.2261 H   0  0  0  0  0  0  0  0  0  0  0  0
 14 15  1  0
 14 16  1  0
  2  3  1  0
  2  9  1  0
  2 15  1  0
  3  4  1  0
  4  5  1  0
  4  1  1  0
  1 17  1  0
 17 18  1  0
 17 24  1  0
 18 19  1  0
 18 20  1  0
 19 26  1  0
 20 21  1  0
 20 22  1  0
 21 27  1  0
 22 23  1  0
 23 24  1  0
 23 29  1  0
 29 30  1  0
 30 31  1  0
 24 25  1  0
 25 28  1  0
  5  6  1  0
  5  7  1  0
  6 11  1  0
  7  8  1  0
  7  9  1  0
  8 12  1  0
  9 10  1  0
 10 13  1  0
M  END
> <minimizedAffinity>
-5.39989

> <CNNscore>
0.7379509211

> <CNNaffinity>
3.3269813061

> <CNN_VS>
2.4551489353

> <CNNaffinity_variance>
0.4089929163

$$$$



 31 32  0  0  0  0  0  0  0  0999 V2000
   17.3750   -9.9585   -1.1940 O   0  0  0  0  0  0  0  0  0  0  0  0
   17.1526  -12.2128   -4.0313 C   0  0  0  0  0  0  0  0  0  0  0  0
   17.4771  -11.0534   -3.2483 O   0  0  0  0  0  0  0  0  0  0  0  0
   16.9490  -11.1094   -1.9256 C   0  0  0  0  0  0  0  0  0  0  0  0
   15.4041  -11.1372   -1.9703 C   0  0  0  0  0  0  0  0  0  0  0  0
   14.8238  -11.2097   -0.6600 O   0  0  0  0  0  0  0  0  0  0  0  0
   14.9549  -12.3474   -2.8176 C   0  0  0  0  0  0  0  0  0  0  0  0
   13.5311  -12.3957   -2.9645 O   0  0  0  0  0  0  0  0  0  0  0  0
   15.6311  -12.3306   -4.1974 C   0  0  0  0  0  0  0  0  0  0  0  0
   15.3014  -13.4955   -4.9575 O   0  0  0  0  0  0  0  0  0  0  0  0
   14.9850  -12.0959   -0.2943 H   0  0  0  0  0  0  0  0  0  0  0  0
   13.2404  -11.5787   -3.4089 H   0  0  0  0  0  0  0  0  0  0  0  0
   15.1305  -14.2332   -4.3460 H   0  0  0  0  0  0  0  0  0  0  0  0
   19.0169  -11.2776   -5.2723 O   0  0  0  0  0  0  0  0  0  0  0  0
   17.8351  -12.0723   -5.3989 C   0  0  0  0  0  0  0  0  0  0  0  0
   19.3302  -11.1063   -6.1772 H   0  0  0  0  0  0  0  0  0  0  0  0
   18.6882  -10.0565   -0.5969 C   0  0  0  0  0  0  0  0  0  0  0  0
   18.6746   -9.6530    0.8949 C   0  0  0  0  0  0  0  0  0  0  0  0
   18.0738  -10.6799    1.7018 O   0  0  0  0  0  0  0  0  0  0  0  0
   20.0920   -9.3676    1.4250 C   0  0  0  0  0  0  0  0  0  0  0  0
   20.8124  -10.5753    1.6605 O   0  0  0  0  0  0  0  0  0  0  0  0
   20.8276   -8.4724    0.6162 O   0  0  0  0  0  0  0  0  0  0  0  0
   20.9781   -8.9113   -0.7317 C   0  0  0  0  0  0  0  0  0  0  0  0
   19.6085   -9.1064   -1.4074 C   0  0  0  0  0  0  0  0  0  0  0  0
   19.8085   -9.5832   -2.7489 O   0  0  0  0  0  0  0  0  0  0  0  0
   18.7972  -11.1918    2.1171 H   0  0  0  0  0  0  0  0  0  0  0  0
   20.7371  -11.1503    0.8830 H   0  0  0  0  0  0  0  0  0  0  0  0
   19.8103  -10.5570   -2.7357 H   0  0  0  0  0  0  0  0  0  0  0  0
   21.8380   -7.8734   -1.4738 C   0  0  0  0  0  0  0  0  0  0  0  0
   21.0598   -7.0017   -2.2851 O   0  0  0  0  0  0  0  0  0  0  0  0
   20.3439   -6.6496   -1.7154 H   0  0  0  0  0  0  0  0  0  0  0  0
 14 15  1  0
 14 16  1  0
  2  3  1  0
  2  9  1  0
  2 15  1  0
  3  4  1  0
  4  5  1  0
  4  1  1  0
  1 17  1  0
 17 18  1  0
 17 24  1  0
 18 19  1  0
 18 20  1  0
 19 26  1  0
 20 21  1  0
 20 22  1  0
 21 27  1  0
 22 23  1  0
 23 24  1  0
 23 29  1  0
 29 30  1  0
 30 31  1  0
 24 25  1  0
 25 28  1  0
  5  6  1  0
  5  7  1  0
  6 11  1  0
  7  8  1  0
  7  9  1  0
  8 12  1  0
  9 10  1  0
 10 13  1  0
M  END
> <minimizedAffinity>
-5.14449

> <CNNscore>
0.7287102938

> <CNNaffinity>
2.9138243198

> <CNN_VS>
2.1233336926

> <CNNaffinity_variance>
0.6120976806

$$$$



 31 32  0  0  0  0  0  0  0  0999 V2000
   19.1730   -9.2730   -1.5260 O   0  0  0  0  0  0  0  0  0  0  0  0
   17.5892  -12.0910   -3.1789 C   0  0  0  0  0  0  0  0  0  0  0  0
   18.3132  -10.8643   -2.9949 O   0  0  0  0  0  0  0  0  0  0  0  0
   18.3792  -10.4563   -1.6308 C   0  0  0  0  0  0  0  0  0  0  0  0
   16.9596  -10.1623   -1.0943 C   0  0  0  0  0  0  0  0  0  0  0  0
   16.9716   -9.7618    0.2836 O   0  0  0  0  0  0  0  0  0  0  0  0
   16.0914  -11.4268   -1.2720 C   0  0  0  0  0  0  0  0  0  0  0  0
   14.7371  -11.2050   -0.8622 O   0  0  0  0  0  0  0  0  0  0  0  0
   16.1323  -11.9185   -2.7273 C   0  0  0  0  0  0  0  0  0  0  0  0
   15.4126  -13.1432   -2.8877 O   0  0  0  0  0  0  0  0  0  0  0  0
   17.1888  -10.5340    0.8326 H   0  0  0  0  0  0  0  0  0  0  0  0
   14.3636  -10.4907   -1.4098 H   0  0  0  0  0  0  0  0  0  0  0  0
   15.4447  -13.6399   -2.0513 H   0  0  0  0  0  0  0  0  0  0  0  0
   16.3692  -12.2772   -5.2687 O   0  0  0  0  0  0  0  0  0  0  0  0
   17.6522  -12.4645   -4.6663 C   0  0  0  0  0  0  0  0  0  0  0  0
   16.4288  -12.6545   -6.1634 H   0  0  0  0  0  0  0  0  0  0  0  0
   20.4964   -9.4629   -0.9756 C   0  0  0  0  0  0  0  0  0  0  0  0
   21.3574  -10.3984   -1.8542 C   0  0  0  0  0  0  0  0  0  0  0  0
   21.7942   -9.7276   -3.0482 O   0  0  0  0  0  0  0  0  0  0  0  0
   22.5915  -10.9222   -1.0965 C   0  0  0  0  0  0  0  0  0  0  0  0
   23.6052   -9.9240   -1.0002 O   0  0  0  0  0  0  0  0  0  0  0  0
   22.2853  -11.4761    0.1668 O   0  0  0  0  0  0  0  0  0  0  0  0
   21.6242  -10.5679    1.0444 C   0  0  0  0  0  0  0  0  0  0  0  0
   20.2987  -10.0748    0.4362 C   0  0  0  0  0  0  0  0  0  0  0  0
   19.6871   -9.1360    1.3371 O   0  0  0  0  0  0  0  0  0  0  0  0
   22.7191   -9.4412   -2.9058 H   0  0  0  0  0  0  0  0  0  0  0  0
   23.2105   -9.0956   -0.6861 H   0  0  0  0  0  0  0  0  0  0  0  0
   19.9915   -8.2402    1.1063 H   0  0  0  0  0  0  0  0  0  0  0  0
   21.4042  -11.2842    2.3882 C   0  0  0  0  0  0  0  0  0  0  0  0
   21.2692  -10.3751    3.4740 O   0  0  0  0  0  0  0  0  0  0  0  0
   20.5890   -9.7199    3.2111 H   0  0  0  0  0  0  0  0  0  0  0  0
 14 15  1  0
 14 16  1  0
  2  3  1  0
  2  9  1  0
  2 15  1  0
  3  4  1  0
  4  5  1  0
  4  1  1  0
  1 17  1  0
 17 18  1  0
 17 24  1  0
 18 19  1  0
 18 20  1  0
 19 26  1  0
 20 21  1  0
 20 22  1  0
 21 27  1  0
 22 23  1  0
 23 24  1  0
 23 29  1  0
 29 30  1  0
 30 31  1  0
 24 25  1  0
 25 28  1  0
  5  6  1  0
  5  7  1  0
  6 11  1  0
  7  8  1  0
  7  9  1  0
  8 12  1  0
  9 10  1  0
 10 13  1  0
M  END
> <minimizedAffinity>
-3.70901

> <CNNscore>
0.7104895115

> <CNNaffinity>
2.8525469303

> <CNN_VS>
2.0267047882

> <CNNaffinity_variance>
0.6231769323

$$$$
