


 31 32  0  0  0  0  0  0  0  0999 V2000
    4.2264   14.2310  -10.9749 O   0  0  0  0  0  0  0  0  0  0  0  0
    5.6580   12.4103   -8.1790 C   0  0  0  0  0  0  0  0  0  0  0  0
    5.0841   13.4836   -8.9414 O   0  0  0  0  0  0  0  0  0  0  0  0
    4.8622   13.1398  -10.3068 C   0  0  0  0  0  0  0  0  0  0  0  0
    6.2076   12.8343  -11.0038 C   0  0  0  0  0  0  0  0  0  0  0  0
    6.0354   12.4666  -12.3802 O   0  0  0  0  0  0  0  0  0  0  0  0
    6.9167   11.6980  -10.2356 C   0  0  0  0  0  0  0  0  0  0  0  0
    8.2082   11.4098  -10.7833 O   0  0  0  0  0  0  0  0  0  0  0  0
    7.0370   12.0393   -8.7421 C   0  0  0  0  0  0  0  0  0  0  0  0
    7.6033   10.9564   -8.0005 O   0  0  0  0  0  0  0  0  0  0  0  0
    5.6347   11.5819  -12.4205 H   0  0  0  0  0  0  0  0  0  0  0  0
    8.7539   12.2148  -10.7231 H   0  0  0  0  0  0  0  0  0  0  0  0
    7.3759   10.1190   -8.4414 H   0  0  0  0  0  0  0  0  0  0  0  0
    4.7404   12.2761   -5.9361 O   0  0  0  0  0  0  0  0  0  0  0  0
    5.7775   12.8713   -6.7199 C   0  0  0  0  0  0  0  0  0  0  0  0
    4.7772   12.7034   -5.0629 H   0  0  0  0  0  0  0  0  0  0  0  0
    2.8628   13.9912  -11.3913 C   0  0  0  0  0  0  0  0  0  0  0  0
    2.5573   14.6345  -12.7630 C   0  0  0  0  0  0  0  0  0  0  0  0
    3.1658   13.8880  -13.8301 O   0  0  0  0  0  0  0  0  0  0  0  0
    1.0431   14.7352  -13.0250 C   0  0  0  0  0  0  0  0  0  0  0  0
    0.4929   13.4712  -13.3891 O   0  0  0  0  0  0  0  0  0  0  0  0
    0.3247   15.3288  -11.9630 O   0  0  0  0  0  0  0  0  0  0  0  0
    0.4780   14.6499  -10.7189 C   0  0  0  0  0  0  0  0  0  0  0  0
    1.9562   14.6032  -10.2913 C   0  0  0  0  0  0  0  0  0  0  0  0
    2.0662   13.8794   -9.0540 O   0  0  0  0  0  0  0  0  0  0  0  0
    2.4721   13.3271  -14.2326 H   0  0  0  0  0  0  0  0  0  0  0  0
    0.7898   12.7982  -12.7568 H   0  0  0  0  0  0  0  0  0  0  0  0
    2.2160   12.9386   -9.2565 H   0  0  0  0  0  0  0  0  0  0  0  0
   -0.3955   15.3695   -9.6765 C   0  0  0  0  0  0  0  0  0  0  0  0
    0.3628   16.2203   -8.8251 O   0  0  0  0  0  0  0  0  0  0  0  0
    0.9076   16.7903   -9.4077 H   0  0  0  0  0  0  0  0  0  0  0  0
 14 15  1  0
 14 16  1  0
  2  3  1  0
  2  9  1  0
  2 15  1  0
  3  4  1  0
  4  5  1  0
  4  1  1  0
  1 17  1  0
 17 18  1  0
 17 24  1  0
 18 19  1  0
 18 20  1  0
 19 26  1  0
 20 21  1  0
 20 22  1  0
 21 27  1  0
 22 23  1  0
 23 24  1  0
 23 29  1  0
 29 30  1  0
 30 31  1  0
 24 25  1  0
 25 28  1  0
  5  6  1  0
  5  7  1  0
  6 11  1  0
  7  8  1  0
  7  9  1  0
  8 12  1  0
  9 10  1  0
 10 13  1  0
M  END
> <minimizedAffinity>
-4.58289

> <CNNscore>
0.9273896813

> <CNNaffinity>
3.2275302410

> <CNN_VS>
2.9931781292

> <CNNaffinity_variance>
0.3224119246

$$$$



 31 32  0  0  0  0  0  0  0  0999 V2000
    2.7378   13.8394   -9.8450 O   0  0  0  0  0  0  0  0  0  0  0  0
    6.0900   12.6535   -9.1116 C   0  0  0  0  0  0  0  0  0  0  0  0
    4.8164   12.7898   -9.7613 O   0  0  0  0  0  0  0  0  0  0  0  0
    3.9495   13.7076   -9.0996 C   0  0  0  0  0  0  0  0  0  0  0  0
    3.6167   13.1955   -7.6795 C   0  0  0  0  0  0  0  0  0  0  0  0
    2.7569   14.0952   -6.9651 O   0  0  0  0  0  0  0  0  0  0  0  0
    4.9365   12.9941   -6.9038 C   0  0  0  0  0  0  0  0  0  0  0  0
    4.7096   12.4494   -5.5988 O   0  0  0  0  0  0  0  0  0  0  0  0
    5.9037   12.0979   -7.6928 C   0  0  0  0  0  0  0  0  0  0  0  0
    7.1667   11.9810   -7.0336 O   0  0  0  0  0  0  0  0  0  0  0  0
    3.2626   14.8911   -6.7291 H   0  0  0  0  0  0  0  0  0  0  0  0
    4.2716   11.5847   -5.6990 H   0  0  0  0  0  0  0  0  0  0  0  0
    7.3315   12.7920   -6.5214 H   0  0  0  0  0  0  0  0  0  0  0  0
    7.0557   10.4352   -9.3045 O   0  0  0  0  0  0  0  0  0  0  0  0
    6.9564   11.7058   -9.9525 C   0  0  0  0  0  0  0  0  0  0  0  0
    7.7185    9.9252   -9.8014 H   0  0  0  0  0  0  0  0  0  0  0  0
    2.5613   15.1062  -10.5193 C   0  0  0  0  0  0  0  0  0  0  0  0
    1.4102   15.9323   -9.9020 C   0  0  0  0  0  0  0  0  0  0  0  0
    1.7996   16.4961   -8.6383 O   0  0  0  0  0  0  0  0  0  0  0  0
    0.9545   17.0687  -10.8360 C   0  0  0  0  0  0  0  0  0  0  0  0
    1.8738   18.1586  -10.8163 O   0  0  0  0  0  0  0  0  0  0  0  0
    0.6833   16.6409  -12.1551 O   0  0  0  0  0  0  0  0  0  0  0  0
    1.7926   16.0112  -12.7916 C   0  0  0  0  0  0  0  0  0  0  0  0
    2.2544   14.7723  -12.0028 C   0  0  0  0  0  0  0  0  0  0  0  0
    3.3944   14.1932  -12.6600 O   0  0  0  0  0  0  0  0  0  0  0  0
    2.0387   17.4325   -8.7926 H   0  0  0  0  0  0  0  0  0  0  0  0
    2.7748   17.8201  -10.9363 H   0  0  0  0  0  0  0  0  0  0  0  0
    4.2024   14.5881  -12.2863 H   0  0  0  0  0  0  0  0  0  0  0  0
    1.3718   15.6500  -14.2268 C   0  0  0  0  0  0  0  0  0  0  0  0
    1.1893   14.2505  -14.4046 O   0  0  0  0  0  0  0  0  0  0  0  0
    0.5946   13.9495  -13.6857 H   0  0  0  0  0  0  0  0  0  0  0  0
 14 15  1  0
 14 16  1  0
  2  3  1  0
  2  9  1  0
  2 15  1  0
  3  4  1  0
  4  5  1  0
  4  1  1  0
  1 17  1  0
 17 18  1  0
 17 24  1  0
 18 19  1  0
 18 20  1  0
 19 26  1  0
 20 21  1  0
 20 22  1  0
 21 27  1  0
 22 23  1  0
 23 24  1  0
 23 29  1  0
 29 30  1  0
 30 31  1  0
 24 25  1  0
 25 28  1  0
  5  6  1  0
  5  7  1  0
  6 11  1  0
  7  8  1  0
  7  9  1  0
  8 12  1  0
  9 10  1  0
 10 13  1  0
M  END
> <minimizedAffinity>
-4.80932

> <CNNscore>
0.9000685215

> <CNNaffinity>
3.3023986816

> <CNN_VS>
2.9723851681

> <CNNaffinity_variance>
0.3051499128

$$$$



 31 32  0  0  0  0  0  0  0  0999 V2000
    2.8061   13.9072   -9.9041 O   0  0  0  0  0  0  0  0  0  0  0  0
    6.1346   12.6703   -9.1473 C   0  0  0  0  0  0  0  0  0  0  0  0
    4.8742   12.8374   -9.8152 O   0  0  0  0  0  0  0  0  0  0  0  0
    4.0029   13.7422   -9.1414 C   0  0  0  0  0  0  0  0  0  0  0  0
    3.6402   13.1901   -7.7439 C   0  0  0  0  0  0  0  0  0  0  0  0
    2.7749   14.0752   -7.0178 O   0  0  0  0  0  0  0  0  0  0  0  0
    4.9440   12.9538   -6.9511 C   0  0  0  0  0  0  0  0  0  0  0  0
    4.6889   12.3716   -5.6677 O   0  0  0  0  0  0  0  0  0  0  0  0
    5.9180   12.0735   -7.7497 C   0  0  0  0  0  0  0  0  0  0  0  0
    7.1678   11.9255   -7.0718 O   0  0  0  0  0  0  0  0  0  0  0  0
    3.2828   14.8591   -6.7486 H   0  0  0  0  0  0  0  0  0  0  0  0
    4.2458   11.5142   -5.8020 H   0  0  0  0  0  0  0  0  0  0  0  0
    7.3299   12.7192   -6.5322 H   0  0  0  0  0  0  0  0  0  0  0  0
    7.0592   10.4414   -9.4074 O   0  0  0  0  0  0  0  0  0  0  0  0
    7.0083   11.7410  -10.0011 C   0  0  0  0  0  0  0  0  0  0  0  0
    7.7272    9.9388   -9.9049 H   0  0  0  0  0  0  0  0  0  0  0  0
    2.6951   15.1600  -10.6172 C   0  0  0  0  0  0  0  0  0  0  0  0
    4.0726   15.6801  -11.0868 C   0  0  0  0  0  0  0  0  0  0  0  0
    4.5564   14.9204  -12.2072 O   0  0  0  0  0  0  0  0  0  0  0  0
    4.0209   17.1685  -11.4785 C   0  0  0  0  0  0  0  0  0  0  0  0
    3.4115   17.3498  -12.7548 O   0  0  0  0  0  0  0  0  0  0  0  0
    3.4245   17.9904  -10.4959 O   0  0  0  0  0  0  0  0  0  0  0  0
    2.0911   17.6103  -10.1648 C   0  0  0  0  0  0  0  0  0  0  0  0
    2.0420   16.1662   -9.6335 C   0  0  0  0  0  0  0  0  0  0  0  0
    0.6774   15.8151   -9.3483 O   0  0  0  0  0  0  0  0  0  0  0  0
    4.3769   15.4397  -13.0171 H   0  0  0  0  0  0  0  0  0  0  0  0
    2.5785   16.8539  -12.7857 H   0  0  0  0  0  0  0  0  0  0  0  0
    0.2873   15.4117  -10.1443 H   0  0  0  0  0  0  0  0  0  0  0  0
    1.5549   18.6171   -9.1322 C   0  0  0  0  0  0  0  0  0  0  0  0
    0.5647   19.4808   -9.6774 O   0  0  0  0  0  0  0  0  0  0  0  0
   -0.0994   18.9082  -10.1157 H   0  0  0  0  0  0  0  0  0  0  0  0
 14 15  1  0
 14 16  1  0
  2  3  1  0
  2  9  1  0
  2 15  1  0
  3  4  1  0
  4  5  1  0
  4  1  1  0
  1 17  1  0
 17 18  1  0
 17 24  1  0
 18 19  1  0
 18 20  1  0
 19 26  1  0
 20 21  1  0
 20 22  1  0
 21 27  1  0
 22 23  1  0
 23 24  1  0
 23 29  1  0
 29 30  1  0
 30 31  1  0
 24 25  1  0
 25 28  1  0
  5  6  1  0
  5  7  1  0
  6 11  1  0
  7  8  1  0
  7  9  1  0
  8 12  1  0
  9 10  1  0
 10 13  1  0
M  END
> <minimizedAffinity>
-4.61379

> <CNNscore>
0.8471744061

> <CNNaffinity>
3.4788472652

> <CNN_VS>
2.9471902847

> <CNNaffinity_variance>
0.2454711795

$$$$



 31 32  0  0  0  0  0  0  0  0999 V2000
    3.9862   15.8015   -8.6384 O   0  0  0  0  0  0  0  0  0  0  0  0
    6.2364   13.0377   -9.3308 C   0  0  0  0  0  0  0  0  0  0  0  0
    5.2215   14.0354   -9.5239 O   0  0  0  0  0  0  0  0  0  0  0  0
    4.9498   14.7884   -8.3445 C   0  0  0  0  0  0  0  0  0  0  0  0
    4.3905   13.8632   -7.2398 C   0  0  0  0  0  0  0  0  0  0  0  0
    4.1152   14.5738   -6.0238 O   0  0  0  0  0  0  0  0  0  0  0  0
    5.4104   12.7344   -6.9757 C   0  0  0  0  0  0  0  0  0  0  0  0
    4.9255   11.7932   -6.0113 O   0  0  0  0  0  0  0  0  0  0  0  0
    5.7799   12.0142   -8.2818 C   0  0  0  0  0  0  0  0  0  0  0  0
    6.7957   11.0311   -8.0697 O   0  0  0  0  0  0  0  0  0  0  0  0
    4.9581   14.8213   -5.6077 H   0  0  0  0  0  0  0  0  0  0  0  0
    4.1041   11.3972   -6.3547 H   0  0  0  0  0  0  0  0  0  0  0  0
    7.3529   11.3095   -7.3217 H   0  0  0  0  0  0  0  0  0  0  0  0
    6.3371   13.2932  -11.7423 O   0  0  0  0  0  0  0  0  0  0  0  0
    6.4933   12.3503  -10.6789 C   0  0  0  0  0  0  0  0  0  0  0  0
    6.3734   12.7822  -12.5693 H   0  0  0  0  0  0  0  0  0  0  0  0
    2.6270   15.3347   -8.7973 C   0  0  0  0  0  0  0  0  0  0  0  0
    2.2226   15.2334  -10.2855 C   0  0  0  0  0  0  0  0  0  0  0  0
    2.8386   14.0954  -10.9114 O   0  0  0  0  0  0  0  0  0  0  0  0
    0.6958   15.1328  -10.4596 C   0  0  0  0  0  0  0  0  0  0  0  0
    0.2212   13.8258  -10.1438 O   0  0  0  0  0  0  0  0  0  0  0  0
   -0.0193   16.1294   -9.7582 O   0  0  0  0  0  0  0  0  0  0  0  0
    0.2309   16.1321   -8.3548 C   0  0  0  0  0  0  0  0  0  0  0  0
    1.7247   16.3576   -8.0584 C   0  0  0  0  0  0  0  0  0  0  0  0
    1.9345   16.3158   -6.6367 O   0  0  0  0  0  0  0  0  0  0  0  0
    2.1703   13.3816  -10.9521 H   0  0  0  0  0  0  0  0  0  0  0  0
    0.5896   13.5485   -9.2904 H   0  0  0  0  0  0  0  0  0  0  0  0
    2.1415   15.3995   -6.3798 H   0  0  0  0  0  0  0  0  0  0  0  0
   -0.6483   17.2235   -7.7198 C   0  0  0  0  0  0  0  0  0  0  0  0
   -2.0094   17.1288   -8.1225 O   0  0  0  0  0  0  0  0  0  0  0  0
   -2.2854   16.2007   -7.9693 H   0  0  0  0  0  0  0  0  0  0  0  0
 14 15  1  0
 14 16  1  0
  2  3  1  0
  2  9  1  0
  2 15  1  0
  3  4  1  0
  4  5  1  0
  4  1  1  0
  1 17  1  0
 17 18  1  0
 17 24  1  0
 18 19  1  0
 18 20  1  0
 19 26  1  0
 20 21  1  0
 20 22  1  0
 21 27  1  0
 22 23  1  0
 23 24  1  0
 23 29  1  0
 29 30  1  0
 30 31  1  0
 24 25  1  0
 25 28  1  0
  5  6  1  0
  5  7  1  0
  6 11  1  0
  7  8  1  0
  7  9  1  0
  8 12  1  0
  9 10  1  0
 10 13  1  0
M  END
> <minimizedAffinity>
-4.39172

> <CNNscore>
0.8246841431

> <CNNaffinity>
3.2538969517

> <CNN_VS>
2.6834371090

> <CNNaffinity_variance>
0.2492805570

$$$$



 31 32  0  0  0  0  0  0  0  0999 V2000
    4.7106   12.9486  -10.6227 O   0  0  0  0  0  0  0  0  0  0  0  0
    7.4933   12.9239   -8.2908 C   0  0  0  0  0  0  0  0  0  0  0  0
    6.6899   12.6128   -9.4400 O   0  0  0  0  0  0  0  0  0  0  0  0
    5.4153   13.2503   -9.4170 C   0  0  0  0  0  0  0  0  0  0  0  0
    4.5909   12.7476   -8.2098 C   0  0  0  0  0  0  0  0  0  0  0  0
    3.3018   13.3734   -8.1338 O   0  0  0  0  0  0  0  0  0  0  0  0
    5.3900   13.0193   -6.9168 C   0  0  0  0  0  0  0  0  0  0  0  0
    4.7176   12.5118   -5.7586 O   0  0  0  0  0  0  0  0  0  0  0  0
    6.8042   12.4259   -7.0127 C   0  0  0  0  0  0  0  0  0  0  0  0
    7.5893   12.7526   -5.8636 O   0  0  0  0  0  0  0  0  0  0  0  0
    3.4188   14.3008   -7.8671 H   0  0  0  0  0  0  0  0  0  0  0  0
    4.6108   11.5489   -5.8627 H   0  0  0  0  0  0  0  0  0  0  0  0
    7.2839   13.6041   -5.5046 H   0  0  0  0  0  0  0  0  0  0  0  0
    8.7834   11.2577   -9.4951 O   0  0  0  0  0  0  0  0  0  0  0  0
    8.8597   12.2469   -8.4656 C   0  0  0  0  0  0  0  0  0  0  0  0
    9.6250   10.7705   -9.4701 H   0  0  0  0  0  0  0  0  0  0  0  0
    4.4639   14.0761  -11.4934 C   0  0  0  0  0  0  0  0  0  0  0  0
    2.9608   14.4275  -11.5697 C   0  0  0  0  0  0  0  0  0  0  0  0
    2.5211   15.0780  -10.3656 O   0  0  0  0  0  0  0  0  0  0  0  0
    2.6444   15.3366  -12.7718 C   0  0  0  0  0  0  0  0  0  0  0  0
    3.0436   16.6831  -12.5251 O   0  0  0  0  0  0  0  0  0  0  0  0
    3.1633   14.8560  -13.9950 O   0  0  0  0  0  0  0  0  0  0  0  0
    4.5770   14.6733  -13.9842 C   0  0  0  0  0  0  0  0  0  0  0  0
    4.9983   13.6726  -12.8927 C   0  0  0  0  0  0  0  0  0  0  0  0
    6.4306   13.5483  -12.8947 O   0  0  0  0  0  0  0  0  0  0  0  0
    2.4867   16.0397  -10.5438 H   0  0  0  0  0  0  0  0  0  0  0  0
    3.9538   16.6913  -12.1903 H   0  0  0  0  0  0  0  0  0  0  0  0
    6.8002   14.2019  -12.2744 H   0  0  0  0  0  0  0  0  0  0  0  0
    5.0039   14.2029  -15.3855 C   0  0  0  0  0  0  0  0  0  0  0  0
    5.2094   12.7966  -15.4485 O   0  0  0  0  0  0  0  0  0  0  0  0
    4.4076   12.3768  -15.0716 H   0  0  0  0  0  0  0  0  0  0  0  0
 14 15  1  0
 14 16  1  0
  2  3  1  0
  2  9  1  0
  2 15  1  0
  3  4  1  0
  4  5  1  0
  4  1  1  0
  1 17  1  0
 17 18  1  0
 17 24  1  0
 18 19  1  0
 18 20  1  0
 19 26  1  0
 20 21  1  0
 20 22  1  0
 21 27  1  0
 22 23  1  0
 23 24  1  0
 23 29  1  0
 29 30  1  0
 30 31  1  0
 24 25  1  0
 25 28  1  0
  5  6  1  0
  5  7  1  0
  6 11  1  0
  7  8  1  0
  7  9  1  0
  8 12  1  0
  9 10  1  0
 10 13  1  0
M  END
> <minimizedAffinity>
-4.56122

> <CNNscore>
0.7921243906

> <CNNaffinity>
3.7274706364

> <CNN_VS>
2.9526205063

> <CNNaffinity_variance>
0.7475702167

$$$$



 31 32  0  0  0  0  0  0  0  0999 V2000
    3.4472   15.4052   -8.5771 O   0  0  0  0  0  0  0  0  0  0  0  0
    0.0696   14.7145   -9.7155 C   0  0  0  0  0  0  0  0  0  0  0  0
    1.5051   14.7334   -9.6754 O   0  0  0  0  0  0  0  0  0  0  0  0
    2.0214   15.4960   -8.5874 C   0  0  0  0  0  0  0  0  0  0  0  0
    1.6098   16.9787   -8.7346 C   0  0  0  0  0  0  0  0  0  0  0  0
    2.0938   17.7869   -7.6521 O   0  0  0  0  0  0  0  0  0  0  0  0
    0.0698   17.0600   -8.8104 C   0  0  0  0  0  0  0  0  0  0  0  0
   -0.3830   18.4023   -9.0213 O   0  0  0  0  0  0  0  0  0  0  0  0
   -0.4733   16.1367   -9.9121 C   0  0  0  0  0  0  0  0  0  0  0  0
   -1.9027   16.1265   -9.9307 O   0  0  0  0  0  0  0  0  0  0  0  0
    1.5944   17.5657   -6.8480 H   0  0  0  0  0  0  0  0  0  0  0  0
   -0.0120   18.7228   -9.8634 H   0  0  0  0  0  0  0  0  0  0  0  0
   -2.2311   16.2980   -9.0307 H   0  0  0  0  0  0  0  0  0  0  0  0
    0.1908   14.2871  -12.1016 O   0  0  0  0  0  0  0  0  0  0  0  0
   -0.3641   13.8066  -10.8746 C   0  0  0  0  0  0  0  0  0  0  0  0
   -0.2216   13.7656  -12.8117 H   0  0  0  0  0  0  0  0  0  0  0  0
    3.9823   14.1233   -8.1763 C   0  0  0  0  0  0  0  0  0  0  0  0
    4.8146   14.2264   -6.8781 C   0  0  0  0  0  0  0  0  0  0  0  0
    3.9636   14.3909   -5.7313 O   0  0  0  0  0  0  0  0  0  0  0  0
    5.7032   12.9867   -6.6661 C   0  0  0  0  0  0  0  0  0  0  0  0
    4.9418   11.8741   -6.2018 O   0  0  0  0  0  0  0  0  0  0  0  0
    6.4807   12.6495   -7.7967 O   0  0  0  0  0  0  0  0  0  0  0  0
    5.7081   12.4007   -8.9686 C   0  0  0  0  0  0  0  0  0  0  0  0
    4.8688   13.6333   -9.3513 C   0  0  0  0  0  0  0  0  0  0  0  0
    4.0808   13.3245  -10.5135 O   0  0  0  0  0  0  0  0  0  0  0  0
    3.8791   13.5179   -5.2972 H   0  0  0  0  0  0  0  0  0  0  0  0
    4.1569   11.7668   -6.7616 H   0  0  0  0  0  0  0  0  0  0  0  0
    3.2203   12.9742  -10.2215 H   0  0  0  0  0  0  0  0  0  0  0  0
    6.6746   11.9959  -10.0953 C   0  0  0  0  0  0  0  0  0  0  0  0
    7.2962   10.7392   -9.8540 O   0  0  0  0  0  0  0  0  0  0  0  0
    6.5787   10.1049   -9.6442 H   0  0  0  0  0  0  0  0  0  0  0  0
 14 15  1  0
 14 16  1  0
  2  3  1  0
  2  9  1  0
  2 15  1  0
  3  4  1  0
  4  5  1  0
  4  1  1  0
  1 17  1  0
 17 18  1  0
 17 24  1  0
 18 19  1  0
 18 20  1  0
 19 26  1  0
 20 21  1  0
 20 22  1  0
 21 27  1  0
 22 23  1  0
 23 24  1  0
 23 29  1  0
 29 30  1  0
 30 31  1  0
 24 25  1  0
 25 28  1  0
  5  6  1  0
  5  7  1  0
  6 11  1  0
  7  8  1  0
  7  9  1  0
  8 12  1  0
  9 10  1  0
 10 13  1  0
M  END
> <minimizedAffinity>
-4.52543

> <CNNscore>
0.7865692377

> <CNNaffinity>
3.6419353485

> <CNN_VS>
2.8646342754

> <CNNaffinity_variance>
0.1026667356

$$$$



 31 32  0  0  0  0  0  0  0  0999 V2000
    2.7081   13.8428   -9.8666 O   0  0  0  0  0  0  0  0  0  0  0  0
    6.0868   12.6849   -9.2142 C   0  0  0  0  0  0  0  0  0  0  0  0
    4.8014   12.8196   -9.8406 O   0  0  0  0  0  0  0  0  0  0  0  0
    3.9331   13.7094   -9.1434 C   0  0  0  0  0  0  0  0  0  0  0  0
    3.6295   13.1588   -7.7313 C   0  0  0  0  0  0  0  0  0  0  0  0
    2.7694   14.0293   -6.9820 O   0  0  0  0  0  0  0  0  0  0  0  0
    4.9640   12.9566   -6.9812 C   0  0  0  0  0  0  0  0  0  0  0  0
    4.7649   12.3776   -5.6865 O   0  0  0  0  0  0  0  0  0  0  0  0
    5.9303   12.0928   -7.8066 C   0  0  0  0  0  0  0  0  0  0  0  0
    7.2050   11.9771   -7.1701 O   0  0  0  0  0  0  0  0  0  0  0  0
    3.2683   14.8261   -6.7346 H   0  0  0  0  0  0  0  0  0  0  0  0
    4.3367   11.5097   -5.8008 H   0  0  0  0  0  0  0  0  0  0  0  0
    7.3672   12.7778   -6.6409 H   0  0  0  0  0  0  0  0  0  0  0  0
    7.0897   10.4895   -9.4693 O   0  0  0  0  0  0  0  0  0  0  0  0
    6.9521   11.7696  -10.0912 C   0  0  0  0  0  0  0  0  0  0  0  0
    7.7509   10.0015   -9.9899 H   0  0  0  0  0  0  0  0  0  0  0  0
    2.5857   15.0459  -10.6590 C   0  0  0  0  0  0  0  0  0  0  0  0
    3.5314   15.0298  -11.8813 C   0  0  0  0  0  0  0  0  0  0  0  0
    3.0447   14.1385  -12.8987 O   0  0  0  0  0  0  0  0  0  0  0  0
    3.7062   16.4336  -12.4900 C   0  0  0  0  0  0  0  0  0  0  0  0
    2.5663   16.8134  -13.2577 O   0  0  0  0  0  0  0  0  0  0  0  0
    4.0465   17.4225  -11.5398 O   0  0  0  0  0  0  0  0  0  0  0  0
    3.0972   17.5521  -10.4843 C   0  0  0  0  0  0  0  0  0  0  0  0
    2.9371   16.2271   -9.7169 C   0  0  0  0  0  0  0  0  0  0  0  0
    1.9462   16.3947   -8.6888 O   0  0  0  0  0  0  0  0  0  0  0  0
    2.5993   14.6817  -13.5803 H   0  0  0  0  0  0  0  0  0  0  0  0
    1.7625   16.6516  -12.7396 H   0  0  0  0  0  0  0  0  0  0  0  0
    1.0760   16.1537   -9.0536 H   0  0  0  0  0  0  0  0  0  0  0  0
    3.5663   18.6921   -9.5635 C   0  0  0  0  0  0  0  0  0  0  0  0
    4.2998   18.2179   -8.4406 O   0  0  0  0  0  0  0  0  0  0  0  0
    4.9963   17.6224   -8.7891 H   0  0  0  0  0  0  0  0  0  0  0  0
 14 15  1  0
 14 16  1  0
  2  3  1  0
  2  9  1  0
  2 15  1  0
  3  4  1  0
  4  5  1  0
  4  1  1  0
  1 17  1  0
 17 18  1  0
 17 24  1  0
 18 19  1  0
 18 20  1  0
 19 26  1  0
 20 21  1  0
 20 22  1  0
 21 27  1  0
 22 23  1  0
 23 24  1  0
 23 29  1  0
 29 30  1  0
 30 31  1  0
 24 25  1  0
 25 28  1  0
  5  6  1  0
  5  7  1  0
  6 11  1  0
  7  8  1  0
  7  9  1  0
  8 12  1  0
  9 10  1  0
 10 13  1  0
M  END
> <minimizedAffinity>
-4.65357

> <CNNscore>
0.7672230601

> <CNNaffinity>
2.9716243744

> <CNN_VS>
2.2798986435

> <CNNaffinity_variance>
0.4200234413

$$$$



 31 32  0  0  0  0  0  0  0  0999 V2000
    2.6584   14.3107   -6.7416 O   0  0  0  0  0  0  0  0  0  0  0  0
    4.8908   17.0859   -6.0371 C   0  0  0  0  0  0  0  0  0  0  0  0
    4.3310   15.7634   -6.0195 O   0  0  0  0  0  0  0  0  0  0  0  0
    3.1095   15.6663   -6.7477 C   0  0  0  0  0  0  0  0  0  0  0  0
    2.0302   16.5617   -6.0976 C   0  0  0  0  0  0  0  0  0  0  0  0
    0.7830   16.5104   -6.8055 O   0  0  0  0  0  0  0  0  0  0  0  0
    2.5540   18.0134   -6.0497 C   0  0  0  0  0  0  0  0  0  0  0  0
    1.6331   18.8906   -5.3912 O   0  0  0  0  0  0  0  0  0  0  0  0
    3.9290   18.0767   -5.3665 C   0  0  0  0  0  0  0  0  0  0  0  0
    4.4716   19.3988   -5.4010 O   0  0  0  0  0  0  0  0  0  0  0  0
    0.8837   16.9775   -7.6521 H   0  0  0  0  0  0  0  0  0  0  0  0
    1.5070   18.5743   -4.4782 H   0  0  0  0  0  0  0  0  0  0  0  0
    4.1369   19.8567   -6.1919 H   0  0  0  0  0  0  0  0  0  0  0  0
    6.0285   17.3576   -3.9105 O   0  0  0  0  0  0  0  0  0  0  0  0
    6.2317   17.0472   -5.2912 C   0  0  0  0  0  0  0  0  0  0  0  0
    6.9134   17.4545   -3.5181 H   0  0  0  0  0  0  0  0  0  0  0  0
    3.4905   13.3788   -7.4693 C   0  0  0  0  0  0  0  0  0  0  0  0
    4.9100   13.2806   -6.8660 C   0  0  0  0  0  0  0  0  0  0  0  0
    4.8983   12.5331   -5.6382 O   0  0  0  0  0  0  0  0  0  0  0  0
    5.9037   12.6226   -7.8412 C   0  0  0  0  0  0  0  0  0  0  0  0
    5.7246   11.2089   -7.8914 O   0  0  0  0  0  0  0  0  0  0  0  0
    5.8897   13.1949   -9.1331 O   0  0  0  0  0  0  0  0  0  0  0  0
    4.6120   13.1521   -9.7637 C   0  0  0  0  0  0  0  0  0  0  0  0
    3.5564   13.8999   -8.9290 C   0  0  0  0  0  0  0  0  0  0  0  0
    2.2802   13.7990   -9.5833 O   0  0  0  0  0  0  0  0  0  0  0  0
    5.2056   11.6262   -5.8405 H   0  0  0  0  0  0  0  0  0  0  0  0
    4.7836   11.0092   -8.0151 H   0  0  0  0  0  0  0  0  0  0  0  0
    1.8193   13.0104   -9.2456 H   0  0  0  0  0  0  0  0  0  0  0  0
    4.7589   13.7554  -11.1715 C   0  0  0  0  0  0  0  0  0  0  0  0
    4.3124   15.1047  -11.2347 O   0  0  0  0  0  0  0  0  0  0  0  0
    4.7577   15.5841  -10.5047 H   0  0  0  0  0  0  0  0  0  0  0  0
 14 15  1  0
 14 16  1  0
  2  3  1  0
  2  9  1  0
  2 15  1  0
  3  4  1  0
  4  5  1  0
  4  1  1  0
  1 17  1  0
 17 18  1  0
 17 24  1  0
 18 19  1  0
 18 20  1  0
 19 26  1  0
 20 21  1  0
 20 22  1  0
 21 27  1  0
 22 23  1  0
 23 24  1  0
 23 29  1  0
 29 30  1  0
 30 31  1  0
 24 25  1  0
 25 28  1  0
  5  6  1  0
  5  7  1  0
  6 11  1  0
  7  8  1  0
  7  9  1  0
  8 12  1  0
  9 10  1  0
 10 13  1  0
M  END
> <minimizedAffinity>
-4.47146

> <CNNscore>
0.7603548169

> <CNNaffinity>
3.7914285660

> <CNN_VS>
2.8828308582

> <CNNaffinity_variance>
0.5743610263

$$$$



 31 32  0  0  0  0  0  0  0  0999 V2000
    4.0798   12.8529   -8.0767 O   0  0  0  0  0  0  0  0  0  0  0  0
    7.0302   12.4579  -10.1553 C   0  0  0  0  0  0  0  0  0  0  0  0
    5.6684   12.3622   -9.7092 O   0  0  0  0  0  0  0  0  0  0  0  0
    5.4662   12.9230   -8.4144 C   0  0  0  0  0  0  0  0  0  0  0  0
    6.2836   12.1397   -7.3620 C   0  0  0  0  0  0  0  0  0  0  0  0
    6.1253   12.6772   -6.0409 O   0  0  0  0  0  0  0  0  0  0  0  0
    7.7723   12.1662   -7.7710 C   0  0  0  0  0  0  0  0  0  0  0  0
    8.5840   11.3953   -6.8776 O   0  0  0  0  0  0  0  0  0  0  0  0
    7.9521   11.6701   -9.2142 C   0  0  0  0  0  0  0  0  0  0  0  0
    9.3119   11.7802   -9.6412 O   0  0  0  0  0  0  0  0  0  0  0  0
    6.5871   13.5313   -5.9926 H   0  0  0  0  0  0  0  0  0  0  0  0
    8.2715   10.4726   -6.8976 H   0  0  0  0  0  0  0  0  0  0  0  0
    9.7313   12.5218   -9.1707 H   0  0  0  0  0  0  0  0  0  0  0  0
    7.5459   10.5348  -11.5432 O   0  0  0  0  0  0  0  0  0  0  0  0
    7.1065   11.8948  -11.5812 C   0  0  0  0  0  0  0  0  0  0  0  0
    7.7081   10.2733  -12.4661 H   0  0  0  0  0  0  0  0  0  0  0  0
    3.4087   14.1273   -7.9511 C   0  0  0  0  0  0  0  0  0  0  0  0
    2.8999   14.3716   -6.5123 C   0  0  0  0  0  0  0  0  0  0  0  0
    3.9865   14.6946   -5.6285 O   0  0  0  0  0  0  0  0  0  0  0  0
    1.8581   15.5043   -6.4566 C   0  0  0  0  0  0  0  0  0  0  0  0
    2.4764   16.7852   -6.5566 O   0  0  0  0  0  0  0  0  0  0  0  0
    0.8128   15.3565   -7.3958 O   0  0  0  0  0  0  0  0  0  0  0  0
    1.2633   15.2842   -8.7463 C   0  0  0  0  0  0  0  0  0  0  0  0
    2.2209   14.0957   -8.9484 C   0  0  0  0  0  0  0  0  0  0  0  0
    2.6769   14.0845  -10.3118 O   0  0  0  0  0  0  0  0  0  0  0  0
    3.9939   15.6661   -5.5106 H   0  0  0  0  0  0  0  0  0  0  0  0
    3.0929   16.7860   -7.3055 H   0  0  0  0  0  0  0  0  0  0  0  0
    3.4978   14.6053  -10.3692 H   0  0  0  0  0  0  0  0  0  0  0  0
    0.0247   15.1800   -9.6532 C   0  0  0  0  0  0  0  0  0  0  0  0
   -0.2706   13.8373  -10.0191 O   0  0  0  0  0  0  0  0  0  0  0  0
   -0.2912   13.3163   -9.1889 H   0  0  0  0  0  0  0  0  0  0  0  0
 14 15  1  0
 14 16  1  0
  2  3  1  0
  2  9  1  0
  2 15  1  0
  3  4  1  0
  4  5  1  0
  4  1  1  0
  1 17  1  0
 17 18  1  0
 17 24  1  0
 18 19  1  0
 18 20  1  0
 19 26  1  0
 20 21  1  0
 20 22  1  0
 21 27  1  0
 22 23  1  0
 23 24  1  0
 23 29  1  0
 29 30  1  0
 30 31  1  0
 24 25  1  0
 25 28  1  0
  5  6  1  0
  5  7  1  0
  6 11  1  0
  7  8  1  0
  7  9  1  0
  8 12  1  0
  9 10  1  0
 10 13  1  0
M  END
> <minimizedAffinity>
-5.33476

> <CNNscore>
0.6702048182

> <CNNaffinity>
3.4903459549

> <CNN_VS>
2.3392467499

> <CNNaffinity_variance>
0.2796856463

$$$$



 31 32  0  0  0  0  0  0  0  0999 V2000
    3.2359   12.8947   -7.4640 O   0  0  0  0  0  0  0  0  0  0  0  0
    0.6765   15.4000   -8.0594 C   0  0  0  0  0  0  0  0  0  0  0  0
    1.6558   14.3809   -8.3147 O   0  0  0  0  0  0  0  0  0  0  0  0
    2.3353   13.9543   -7.1365 C   0  0  0  0  0  0  0  0  0  0  0  0
    3.1356   15.1291   -6.5293 C   0  0  0  0  0  0  0  0  0  0  0  0
    3.8266   14.7530   -5.3292 O   0  0  0  0  0  0  0  0  0  0  0  0
    2.1634   16.2932   -6.2395 C   0  0  0  0  0  0  0  0  0  0  0  0
    2.8486   17.4479   -5.7411 O   0  0  0  0  0  0  0  0  0  0  0  0
    1.3546   16.6560   -7.4946 C   0  0  0  0  0  0  0  0  0  0  0  0
    0.3815   17.6660   -7.2180 O   0  0  0  0  0  0  0  0  0  0  0  0
    3.1749   14.6251   -4.6193 H   0  0  0  0  0  0  0  0  0  0  0  0
    3.4909   17.7381   -6.4139 H   0  0  0  0  0  0  0  0  0  0  0  0
    0.1056   17.5918   -6.2875 H   0  0  0  0  0  0  0  0  0  0  0  0
   -1.3516   16.2130   -9.1160 O   0  0  0  0  0  0  0  0  0  0  0  0
   -0.0361   15.7196   -9.3807 C   0  0  0  0  0  0  0  0  0  0  0  0
   -1.8022   16.2676   -9.9764 H   0  0  0  0  0  0  0  0  0  0  0  0
    4.4849   13.3079   -8.0637 C   0  0  0  0  0  0  0  0  0  0  0  0
    4.4863   13.0986   -9.5950 C   0  0  0  0  0  0  0  0  0  0  0  0
    3.6777   14.0890  -10.2520 O   0  0  0  0  0  0  0  0  0  0  0  0
    5.9100   13.1489  -10.1797 C   0  0  0  0  0  0  0  0  0  0  0  0
    6.3893   14.4890  -10.2674 O   0  0  0  0  0  0  0  0  0  0  0  0
    6.8271   12.3115   -9.5058 O   0  0  0  0  0  0  0  0  0  0  0  0
    6.9482   12.5987   -8.1148 C   0  0  0  0  0  0  0  0  0  0  0  0
    5.5936   12.4510   -7.3982 C   0  0  0  0  0  0  0  0  0  0  0  0
    5.7563   12.7851   -6.0093 O   0  0  0  0  0  0  0  0  0  0  0  0
    4.2793   14.7738  -10.6084 H   0  0  0  0  0  0  0  0  0  0  0  0
    6.2415   14.9383   -9.4206 H   0  0  0  0  0  0  0  0  0  0  0  0
    5.5807   13.7362   -5.8958 H   0  0  0  0  0  0  0  0  0  0  0  0
    8.0108   11.6535   -7.5275 C   0  0  0  0  0  0  0  0  0  0  0  0
    8.3111   11.9492   -6.1687 O   0  0  0  0  0  0  0  0  0  0  0  0
    7.4548   11.9939   -5.6934 H   0  0  0  0  0  0  0  0  0  0  0  0
 14 15  1  0
 14 16  1  0
  2  3  1  0
  2  9  1  0
  2 15  1  0
  3  4  1  0
  4  5  1  0
  4  1  1  0
  1 17  1  0
 17 18  1  0
 17 24  1  0
 18 19  1  0
 18 20  1  0
 19 26  1  0
 20 21  1  0
 20 22  1  0
 21 27  1  0
 22 23  1  0
 23 24  1  0
 23 29  1  0
 29 30  1  0
 30 31  1  0
 24 25  1  0
 25 28  1  0
  5  6  1  0
  5  7  1  0
  6 11  1  0
  7  8  1  0
  7  9  1  0
  8 12  1  0
  9 10  1  0
 10 13  1  0
M  END
> <minimizedAffinity>
-4.82813

> <CNNscore>
0.6510038376

> <CNNaffinity>
3.0000541210

> <CNN_VS>
1.9530467987

> <CNNaffinity_variance>
0.5663313270

$$$$



 31 32  0  0  0  0  0  0  0  0999 V2000
    5.9100   14.8606   -7.2895 O   0  0  0  0  0  0  0  0  0  0  0  0
    2.3226   14.6962   -6.7554 C   0  0  0  0  0  0  0  0  0  0  0  0
    3.5891   14.7106   -7.4324 O   0  0  0  0  0  0  0  0  0  0  0  0
    4.6883   14.9322   -6.5523 C   0  0  0  0  0  0  0  0  0  0  0  0
    4.5730   16.3280   -5.8983 C   0  0  0  0  0  0  0  0  0  0  0  0
    5.6511   16.5927   -4.9890 O   0  0  0  0  0  0  0  0  0  0  0  0
    3.2205   16.4183   -5.1588 C   0  0  0  0  0  0  0  0  0  0  0  0
    3.0113   17.7147   -4.5873 O   0  0  0  0  0  0  0  0  0  0  0  0
    2.0585   16.0577   -6.0974 C   0  0  0  0  0  0  0  0  0  0  0  0
    0.8089   16.0417   -5.4033 O   0  0  0  0  0  0  0  0  0  0  0  0
    5.5365   16.0400   -4.1976 H   0  0  0  0  0  0  0  0  0  0  0  0
    3.0180   18.3721   -5.3066 H   0  0  0  0  0  0  0  0  0  0  0  0
    0.9678   15.8032   -4.4731 H   0  0  0  0  0  0  0  0  0  0  0  0
    0.5456   15.5736   -8.1563 O   0  0  0  0  0  0  0  0  0  0  0  0
    1.2327   14.3754   -7.7874 C   0  0  0  0  0  0  0  0  0  0  0  0
   -0.2138   15.2983   -8.6985 H   0  0  0  0  0  0  0  0  0  0  0  0
    6.5906   13.5861   -7.2363 C   0  0  0  0  0  0  0  0  0  0  0  0
    8.0758   13.7418   -6.8380 C   0  0  0  0  0  0  0  0  0  0  0  0
    8.2064   14.0322   -5.4362 O   0  0  0  0  0  0  0  0  0  0  0  0
    8.8928   12.4778   -7.1638 C   0  0  0  0  0  0  0  0  0  0  0  0
    8.6489   11.4418   -6.2149 O   0  0  0  0  0  0  0  0  0  0  0  0
    8.7203   12.0202   -8.4894 O   0  0  0  0  0  0  0  0  0  0  0  0
    7.3655   11.7256   -8.8210 C   0  0  0  0  0  0  0  0  0  0  0  0
    6.4712   12.9676   -8.6539 C   0  0  0  0  0  0  0  0  0  0  0  0
    5.1121   12.6147   -8.9628 O   0  0  0  0  0  0  0  0  0  0  0  0
    8.4434   13.1986   -4.9817 H   0  0  0  0  0  0  0  0  0  0  0  0
    7.6922   11.3335   -6.0974 H   0  0  0  0  0  0  0  0  0  0  0  0
    4.6707   12.3304   -8.1426 H   0  0  0  0  0  0  0  0  0  0  0  0
    7.3370   11.1915  -10.2637 C   0  0  0  0  0  0  0  0  0  0  0  0
    8.6081   10.7200  -10.6947 O   0  0  0  0  0  0  0  0  0  0  0  0
    8.9284   10.1008  -10.0054 H   0  0  0  0  0  0  0  0  0  0  0  0
 14 15  1  0
 14 16  1  0
  2  3  1  0
  2  9  1  0
  2 15  1  0
  3  4  1  0
  4  5  1  0
  4  1  1  0
  1 17  1  0
 17 18  1  0
 17 24  1  0
 18 19  1  0
 18 20  1  0
 19 26  1  0
 20 21  1  0
 20 22  1  0
 21 27  1  0
 22 23  1  0
 23 24  1  0
 23 29  1  0
 29 30  1  0
 30 31  1  0
 24 25  1  0
 25 28  1  0
  5  6  1  0
  5  7  1  0
  6 11  1  0
  7  8  1  0
  7  9  1  0
  8 12  1  0
  9 10  1  0
 10 13  1  0
M  END
> <minimizedAffinity>
-4.74979

> <CNNscore>
0.6325018406

> <CNNaffinity>
3.5245971680

> <CNN_VS>
2.2293140888

> <CNNaffinity_variance>
0.0410373621

$$$$



 31 32  0  0  0  0  0  0  0  0999 V2000
    4.2047   12.7504   -8.6230 O   0  0  0  0  0  0  0  0  0  0  0  0
    7.6908   12.6942   -9.6358 C   0  0  0  0  0  0  0  0  0  0  0  0
    6.2781   12.4356   -9.6386 O   0  0  0  0  0  0  0  0  0  0  0  0
    5.6088   12.9887   -8.5082 C   0  0  0  0  0  0  0  0  0  0  0  0
    6.1287   12.3329   -7.2087 C   0  0  0  0  0  0  0  0  0  0  0  0
    5.4948   12.8689   -6.0382 O   0  0  0  0  0  0  0  0  0  0  0  0
    7.6567   12.5396   -7.1266 C   0  0  0  0  0  0  0  0  0  0  0  0
    8.2210   11.8926   -5.9803 O   0  0  0  0  0  0  0  0  0  0  0  0
    8.3454   12.0452   -8.4083 C   0  0  0  0  0  0  0  0  0  0  0  0
    9.7484   12.3183   -8.3889 O   0  0  0  0  0  0  0  0  0  0  0  0
    5.8163   13.7750   -5.8948 H   0  0  0  0  0  0  0  0  0  0  0  0
    8.0385   10.9377   -6.0457 H   0  0  0  0  0  0  0  0  0  0  0  0
    9.9073   13.1149   -7.8526 H   0  0  0  0  0  0  0  0  0  0  0  0
    8.5061   10.7161  -10.7816 O   0  0  0  0  0  0  0  0  0  0  0  0
    8.2842   12.1207  -10.9300 C   0  0  0  0  0  0  0  0  0  0  0  0
    9.0040   10.4327  -11.5678 H   0  0  0  0  0  0  0  0  0  0  0  0
    3.3956   13.9247   -8.8612 C   0  0  0  0  0  0  0  0  0  0  0  0
    4.2453   15.1222   -9.3434 C   0  0  0  0  0  0  0  0  0  0  0  0
    4.6518   14.9489  -10.7113 O   0  0  0  0  0  0  0  0  0  0  0  0
    3.4843   16.4547   -9.2141 C   0  0  0  0  0  0  0  0  0  0  0  0
    2.5157   16.6033  -10.2499 O   0  0  0  0  0  0  0  0  0  0  0  0
    2.9155   16.6584   -7.9368 O   0  0  0  0  0  0  0  0  0  0  0  0
    2.0075   15.6317   -7.5449 C   0  0  0  0  0  0  0  0  0  0  0  0
    2.7031   14.2586   -7.5138 C   0  0  0  0  0  0  0  0  0  0  0  0
    1.7431   13.2521   -7.1503 O   0  0  0  0  0  0  0  0  0  0  0  0
    4.0530   15.4860  -11.2687 H   0  0  0  0  0  0  0  0  0  0  0  0
    1.9851   15.7937  -10.3111 H   0  0  0  0  0  0  0  0  0  0  0  0
    1.3397   12.8992   -7.9635 H   0  0  0  0  0  0  0  0  0  0  0  0
    1.4302   16.0105   -6.1699 C   0  0  0  0  0  0  0  0  0  0  0  0
    2.0190   17.1917   -5.6390 O   0  0  0  0  0  0  0  0  0  0  0  0
    1.9632   17.8748   -6.3400 H   0  0  0  0  0  0  0  0  0  0  0  0
 14 15  1  0
 14 16  1  0
  2  3  1  0
  2  9  1  0
  2 15  1  0
  3  4  1  0
  4  5  1  0
  4  1  1  0
  1 17  1  0
 17 18  1  0
 17 24  1  0
 18 19  1  0
 18 20  1  0
 19 26  1  0
 20 21  1  0
 20 22  1  0
 21 27  1  0
 22 23  1  0
 23 24  1  0
 23 29  1  0
 29 30  1  0
 30 31  1  0
 24 25  1  0
 25 28  1  0
  5  6  1  0
  5  7  1  0
  6 11  1  0
  7  8  1  0
  7  9  1  0
  8 12  1  0
  9 10  1  0
 10 13  1  0
M  END
> <minimizedAffinity>
-4.65158

> <CNNscore>
0.6245273352

> <CNNaffinity>
3.4790611267

> <CNN_VS>
2.1727688313

> <CNNaffinity_variance>
0.4175505638

$$$$



 31 32  0  0  0  0  0  0  0  0999 V2000
    7.1486   12.0970   -7.1679 O   0  0  0  0  0  0  0  0  0  0  0  0
    4.7959   12.9037   -9.8129 C   0  0  0  0  0  0  0  0  0  0  0  0
    6.0259   12.8248   -9.0756 O   0  0  0  0  0  0  0  0  0  0  0  0
    5.8732   12.2003   -7.8034 C   0  0  0  0  0  0  0  0  0  0  0  0
    4.9290   13.0369   -6.9101 C   0  0  0  0  0  0  0  0  0  0  0  0
    4.7304   12.4396   -5.6205 O   0  0  0  0  0  0  0  0  0  0  0  0
    3.5751   13.1978   -7.6348 C   0  0  0  0  0  0  0  0  0  0  0  0
    2.6707   14.0268   -6.8960 O   0  0  0  0  0  0  0  0  0  0  0  0
    3.7758   13.7606   -9.0506 C   0  0  0  0  0  0  0  0  0  0  0  0
    2.5419   13.8242   -9.7696 O   0  0  0  0  0  0  0  0  0  0  0  0
    4.1817   11.6439   -5.7247 H   0  0  0  0  0  0  0  0  0  0  0  0
    3.0757   14.9070   -6.7926 H   0  0  0  0  0  0  0  0  0  0  0  0
    1.9519   13.1207   -9.4466 H   0  0  0  0  0  0  0  0  0  0  0  0
    6.4907   13.8395  -11.2766 O   0  0  0  0  0  0  0  0  0  0  0  0
    5.1001   13.5203  -11.1851 C   0  0  0  0  0  0  0  0  0  0  0  0
    6.6020   14.3469  -12.0991 H   0  0  0  0  0  0  0  0  0  0  0  0
    8.2010   12.8918   -7.7606 C   0  0  0  0  0  0  0  0  0  0  0  0
    9.2977   12.0109   -8.4009 C   0  0  0  0  0  0  0  0  0  0  0  0
    8.8409   11.4347   -9.6361 O   0  0  0  0  0  0  0  0  0  0  0  0
   10.5887   12.8064   -8.6689 C   0  0  0  0  0  0  0  0  0  0  0  0
   10.4564   13.6416   -9.8170 O   0  0  0  0  0  0  0  0  0  0  0  0
   11.0473   13.5330   -7.5472 O   0  0  0  0  0  0  0  0  0  0  0  0
   10.0939   14.4636   -7.0399 C   0  0  0  0  0  0  0  0  0  0  0  0
    8.7964   13.7521   -6.6153 C   0  0  0  0  0  0  0  0  0  0  0  0
    7.8539   14.7312   -6.1462 O   0  0  0  0  0  0  0  0  0  0  0  0
    9.2111   11.9695  -10.3674 H   0  0  0  0  0  0  0  0  0  0  0  0
    9.6301   14.1455   -9.7533 H   0  0  0  0  0  0  0  0  0  0  0  0
    7.3094   15.0240   -6.8987 H   0  0  0  0  0  0  0  0  0  0  0  0
   10.7445   15.2140   -5.8647 C   0  0  0  0  0  0  0  0  0  0  0  0
   10.1152   14.9282   -4.6212 O   0  0  0  0  0  0  0  0  0  0  0  0
   10.0699   13.9518   -4.5454 H   0  0  0  0  0  0  0  0  0  0  0  0
 14 15  1  0
 14 16  1  0
  2  3  1  0
  2  9  1  0
  2 15  1  0
  3  4  1  0
  4  5  1  0
  4  1  1  0
  1 17  1  0
 17 18  1  0
 17 24  1  0
 18 19  1  0
 18 20  1  0
 19 26  1  0
 20 21  1  0
 20 22  1  0
 21 27  1  0
 22 23  1  0
 23 24  1  0
 23 29  1  0
 29 30  1  0
 30 31  1  0
 24 25  1  0
 25 28  1  0
  5  6  1  0
  5  7  1  0
  6 11  1  0
  7  8  1  0
  7  9  1  0
  8 12  1  0
  9 10  1  0
 10 13  1  0
M  END
> <minimizedAffinity>
-5.49074

> <CNNscore>
0.6142430902

> <CNNaffinity>
2.8074998856

> <CNN_VS>
1.7244874239

> <CNNaffinity_variance>
0.6353040338

$$$$



 31 32  0  0  0  0  0  0  0  0999 V2000
    2.4410   14.0733   -6.9387 O   0  0  0  0  0  0  0  0  0  0  0  0
    3.4625   16.9314   -4.9464 C   0  0  0  0  0  0  0  0  0  0  0  0
    3.0068   15.6115   -5.2825 O   0  0  0  0  0  0  0  0  0  0  0  0
    2.8236   15.4260   -6.6838 C   0  0  0  0  0  0  0  0  0  0  0  0
    1.7175   16.3715   -7.2053 C   0  0  0  0  0  0  0  0  0  0  0  0
    1.5060   16.2333   -8.6179 O   0  0  0  0  0  0  0  0  0  0  0  0
    2.1094   17.8263   -6.8671 C   0  0  0  0  0  0  0  0  0  0  0  0
    1.0924   18.7563   -7.2570 O   0  0  0  0  0  0  0  0  0  0  0  0
    2.4196   17.9752   -5.3694 C   0  0  0  0  0  0  0  0  0  0  0  0
    2.8780   19.2927   -5.0571 O   0  0  0  0  0  0  0  0  0  0  0  0
    2.2685   16.6116   -9.0875 H   0  0  0  0  0  0  0  0  0  0  0  0
    0.2734   18.5345   -6.7779 H   0  0  0  0  0  0  0  0  0  0  0  0
    3.3291   19.6627   -5.8362 H   0  0  0  0  0  0  0  0  0  0  0  0
    2.7863   16.1017   -2.7681 O   0  0  0  0  0  0  0  0  0  0  0  0
    3.6949   16.9850   -3.4301 C   0  0  0  0  0  0  0  0  0  0  0  0
    2.8802   16.2753   -1.8155 H   0  0  0  0  0  0  0  0  0  0  0  0
    3.4368   13.2640   -7.6049 C   0  0  0  0  0  0  0  0  0  0  0  0
    4.7808   13.2597   -6.8418 C   0  0  0  0  0  0  0  0  0  0  0  0
    4.7010   12.4444   -5.6606 O   0  0  0  0  0  0  0  0  0  0  0  0
    5.9383   12.7517   -7.7212 C   0  0  0  0  0  0  0  0  0  0  0  0
    5.9034   11.3329   -7.8586 O   0  0  0  0  0  0  0  0  0  0  0  0
    6.0171   13.3941   -8.9772 O   0  0  0  0  0  0  0  0  0  0  0  0
    4.8300   13.2727   -9.7572 C   0  0  0  0  0  0  0  0  0  0  0  0
    3.6187   13.8725   -9.0202 C   0  0  0  0  0  0  0  0  0  0  0  0
    2.4414   13.6949   -9.8261 O   0  0  0  0  0  0  0  0  0  0  0  0
    5.1154   11.5822   -5.8670 H   0  0  0  0  0  0  0  0  0  0  0  0
    5.0064   11.0565   -8.1030 H   0  0  0  0  0  0  0  0  0  0  0  0
    2.0231   12.8496   -9.5831 H   0  0  0  0  0  0  0  0  0  0  0  0
    5.0780   13.9673  -11.1075 C   0  0  0  0  0  0  0  0  0  0  0  0
    5.3642   13.0432  -12.1505 O   0  0  0  0  0  0  0  0  0  0  0  0
    4.6553   12.3663  -12.1306 H   0  0  0  0  0  0  0  0  0  0  0  0
 14 15  1  0
 14 16  1  0
  2  3  1  0
  2  9  1  0
  2 15  1  0
  3  4  1  0
  4  5  1  0
  4  1  1  0
  1 17  1  0
 17 18  1  0
 17 24  1  0
 18 19  1  0
 18 20  1  0
 19 26  1  0
 20 21  1  0
 20 22  1  0
 21 27  1  0
 22 23  1  0
 23 24  1  0
 23 29  1  0
 29 30  1  0
 30 31  1  0
 24 25  1  0
 25 28  1  0
  5  6  1  0
  5  7  1  0
  6 11  1  0
  7  8  1  0
  7  9  1  0
  8 12  1  0
  9 10  1  0
 10 13  1  0
M  END
> <minimizedAffinity>
-4.66237

> <CNNscore>
0.6095163226

> <CNNaffinity>
3.8701388836

> <CNN_VS>
2.3589127064

> <CNNaffinity_variance>
0.0542706698

$$$$



 31 32  0  0  0  0  0  0  0  0999 V2000
    7.1707   11.7699   -7.4151 O   0  0  0  0  0  0  0  0  0  0  0  0
   10.5984   12.2324   -8.5189 C   0  0  0  0  0  0  0  0  0  0  0  0
    9.2421   11.7616   -8.4821 O   0  0  0  0  0  0  0  0  0  0  0  0
    8.5243   12.2208   -7.3395 C   0  0  0  0  0  0  0  0  0  0  0  0
    9.1702   11.6686   -6.0483 C   0  0  0  0  0  0  0  0  0  0  0  0
    8.4910   12.1168   -4.8664 O   0  0  0  0  0  0  0  0  0  0  0  0
   10.6502   12.1067   -6.0084 C   0  0  0  0  0  0  0  0  0  0  0  0
   11.3348   11.5681   -4.8715 O   0  0  0  0  0  0  0  0  0  0  0  0
   11.3744   11.7066   -7.3033 C   0  0  0  0  0  0  0  0  0  0  0  0
   12.7194   12.1905   -7.3233 O   0  0  0  0  0  0  0  0  0  0  0  0
    8.6738   13.0631   -4.7396 H   0  0  0  0  0  0  0  0  0  0  0  0
   11.2986   10.5957   -4.9236 H   0  0  0  0  0  0  0  0  0  0  0  0
   12.7681   13.0088   -6.7985 H   0  0  0  0  0  0  0  0  0  0  0  0
   10.5553   10.5750  -10.2913 O   0  0  0  0  0  0  0  0  0  0  0  0
   11.2402   11.7394   -9.8230 C   0  0  0  0  0  0  0  0  0  0  0  0
   11.0805   10.2278  -11.0330 H   0  0  0  0  0  0  0  0  0  0  0  0
    6.1897   12.7992   -7.6769 C   0  0  0  0  0  0  0  0  0  0  0  0
    4.8206   12.4655   -7.0423 C   0  0  0  0  0  0  0  0  0  0  0  0
    4.8517   12.6568   -5.6179 O   0  0  0  0  0  0  0  0  0  0  0  0
    3.6884   13.3239   -7.6362 C   0  0  0  0  0  0  0  0  0  0  0  0
    3.7131   14.6508   -7.1147 O   0  0  0  0  0  0  0  0  0  0  0  0
    3.6591   13.3207   -9.0489 O   0  0  0  0  0  0  0  0  0  0  0  0
    4.8707   13.7751   -9.6470 C   0  0  0  0  0  0  0  0  0  0  0  0
    6.0624   12.8991   -9.2198 C   0  0  0  0  0  0  0  0  0  0  0  0
    7.2645   13.4153   -9.8160 O   0  0  0  0  0  0  0  0  0  0  0  0
    4.4355   13.5215   -5.4258 H   0  0  0  0  0  0  0  0  0  0  0  0
    4.6150   15.0024   -7.1758 H   0  0  0  0  0  0  0  0  0  0  0  0
    7.6654   14.0563   -9.2020 H   0  0  0  0  0  0  0  0  0  0  0  0
    4.6759   13.7691  -11.1733 C   0  0  0  0  0  0  0  0  0  0  0  0
    5.5455   12.8541  -11.8294 O   0  0  0  0  0  0  0  0  0  0  0  0
    5.4459   11.9925  -11.3723 H   0  0  0  0  0  0  0  0  0  0  0  0
 14 15  1  0
 14 16  1  0
  2  3  1  0
  2  9  1  0
  2 15  1  0
  3  4  1  0
  4  5  1  0
  4  1  1  0
  1 17  1  0
 17 18  1  0
 17 24  1  0
 18 19  1  0
 18 20  1  0
 19 26  1  0
 20 21  1  0
 20 22  1  0
 21 27  1  0
 22 23  1  0
 23 24  1  0
 23 29  1  0
 29 30  1  0
 30 31  1  0
 24 25  1  0
 25 28  1  0
  5  6  1  0
  5  7  1  0
  6 11  1  0
  7  8  1  0
  7  9  1  0
  8 12  1  0
  9 10  1  0
 10 13  1  0
M  END
> <minimizedAffinity>
-6.48660

> <CNNscore>
0.5107430220

> <CNNaffinity>
2.9712765217

> <CNN_VS>
1.5175586939

> <CNNaffinity_variance>
0.6990961432

$$$$



 31 32  0  0  0  0  0  0  0  0999 V2000
    4.7261   12.9732  -10.6324 O   0  0  0  0  0  0  0  0  0  0  0  0
    7.4990   12.9423   -8.2891 C   0  0  0  0  0  0  0  0  0  0  0  0
    6.7022   12.6373   -9.4444 O   0  0  0  0  0  0  0  0  0  0  0  0
    5.4240   13.2678   -9.4211 C   0  0  0  0  0  0  0  0  0  0  0  0
    4.5973   12.7500   -8.2220 C   0  0  0  0  0  0  0  0  0  0  0  0
    3.3046   13.3682   -8.1458 O   0  0  0  0  0  0  0  0  0  0  0  0
    5.3895   13.0143   -6.9232 C   0  0  0  0  0  0  0  0  0  0  0  0
    4.7150   12.4929   -5.7724 O   0  0  0  0  0  0  0  0  0  0  0  0
    6.8072   12.4293   -7.0184 C   0  0  0  0  0  0  0  0  0  0  0  0
    7.5857   12.7498   -5.8631 O   0  0  0  0  0  0  0  0  0  0  0  0
    3.4155   14.2938   -7.8704 H   0  0  0  0  0  0  0  0  0  0  0  0
    4.6137   11.5304   -5.8856 H   0  0  0  0  0  0  0  0  0  0  0  0
    7.2743   13.5965   -5.4978 H   0  0  0  0  0  0  0  0  0  0  0  0
    8.7940   11.2690   -9.4781 O   0  0  0  0  0  0  0  0  0  0  0  0
    8.8697   12.2742   -8.4641 C   0  0  0  0  0  0  0  0  0  0  0  0
    9.6399   10.7892   -9.4521 H   0  0  0  0  0  0  0  0  0  0  0  0
    4.6783   14.0499  -11.5961 C   0  0  0  0  0  0  0  0  0  0  0  0
    6.0847   14.4147  -12.1231 C   0  0  0  0  0  0  0  0  0  0  0  0
    6.5648   13.4203  -13.0435 O   0  0  0  0  0  0  0  0  0  0  0  0
    6.0978   15.7876  -12.8205 C   0  0  0  0  0  0  0  0  0  0  0  0
    5.5247   15.7145  -14.1241 O   0  0  0  0  0  0  0  0  0  0  0  0
    5.5108   16.8172  -12.0512 O   0  0  0  0  0  0  0  0  0  0  0  0
    4.1568   16.5585  -11.6877 C   0  0  0  0  0  0  0  0  0  0  0  0
    4.0415   15.2616  -10.8661 C   0  0  0  0  0  0  0  0  0  0  0  0
    2.6586   15.0225  -10.5546 O   0  0  0  0  0  0  0  0  0  0  0  0
    6.4233   13.7622  -13.9496 H   0  0  0  0  0  0  0  0  0  0  0  0
    4.6745   15.2502  -14.0749 H   0  0  0  0  0  0  0  0  0  0  0  0
    2.2717   14.4727  -11.2592 H   0  0  0  0  0  0  0  0  0  0  0  0
    3.6357   17.7774  -10.9065 C   0  0  0  0  0  0  0  0  0  0  0  0
    3.6407   17.5652   -9.4999 O   0  0  0  0  0  0  0  0  0  0  0  0
    4.5377   17.2463   -9.2655 H   0  0  0  0  0  0  0  0  0  0  0  0
 14 15  1  0
 14 16  1  0
  2  3  1  0
  2  9  1  0
  2 15  1  0
  3  4  1  0
  4  5  1  0
  4  1  1  0
  1 17  1  0
 17 18  1  0
 17 24  1  0
 18 19  1  0
 18 20  1  0
 19 26  1  0
 20 21  1  0
 20 22  1  0
 21 27  1  0
 22 23  1  0
 23 24  1  0
 23 29  1  0
 29 30  1  0
 30 31  1  0
 24 25  1  0
 25 28  1  0
  5  6  1  0
  5  7  1  0
  6 11  1  0
  7  8  1  0
  7  9  1  0
  8 12  1  0
  9 10  1  0
 10 13  1  0
M  END
> <minimizedAffinity>
-4.43062

> <CNNscore>
0.4373906553

> <CNNaffinity>
3.1171026230

> <CNN_VS>
1.3633915186

> <CNNaffinity_variance>
0.7077185512

$$$$



 31 32  0  0  0  0  0  0  0  0999 V2000
    7.0912   12.0587   -7.3249 O   0  0  0  0  0  0  0  0  0  0  0  0
    4.6704   12.9863   -9.8667 C   0  0  0  0  0  0  0  0  0  0  0  0
    5.9197   12.8721   -9.1675 O   0  0  0  0  0  0  0  0  0  0  0  0
    5.7993   12.1930   -7.9201 C   0  0  0  0  0  0  0  0  0  0  0  0
    4.8830   12.9923   -6.9657 C   0  0  0  0  0  0  0  0  0  0  0  0
    4.7173   12.3397   -5.6984 O   0  0  0  0  0  0  0  0  0  0  0  0
    3.5105   13.1882   -7.6453 C   0  0  0  0  0  0  0  0  0  0  0  0
    2.6297   13.9865   -6.8465 O   0  0  0  0  0  0  0  0  0  0  0  0
    3.6746   13.8118   -9.0401 C   0  0  0  0  0  0  0  0  0  0  0  0
    2.4219   13.9100   -9.7217 O   0  0  0  0  0  0  0  0  0  0  0  0
    4.1630   11.5508   -5.8221 H   0  0  0  0  0  0  0  0  0  0  0  0
    3.0407   14.8603   -6.7160 H   0  0  0  0  0  0  0  0  0  0  0  0
    1.8382   13.1946   -9.4136 H   0  0  0  0  0  0  0  0  0  0  0  0
    5.6783   12.7771  -12.0647 O   0  0  0  0  0  0  0  0  0  0  0  0
    4.9394   13.6616  -11.2186 C   0  0  0  0  0  0  0  0  0  0  0  0
    5.9383   13.2972  -12.8445 H   0  0  0  0  0  0  0  0  0  0  0  0
    8.0829   13.0079   -7.7789 C   0  0  0  0  0  0  0  0  0  0  0  0
    7.5799   14.4650   -7.6672 C   0  0  0  0  0  0  0  0  0  0  0  0
    7.5757   14.9061   -6.2991 O   0  0  0  0  0  0  0  0  0  0  0  0
    8.4386   15.4339   -8.5010 C   0  0  0  0  0  0  0  0  0  0  0  0
    9.6804   15.7133   -7.8583 O   0  0  0  0  0  0  0  0  0  0  0  0
    8.6272   15.0143   -9.8370 O   0  0  0  0  0  0  0  0  0  0  0  0
    9.2346   13.7298   -9.9527 C   0  0  0  0  0  0  0  0  0  0  0  0
    8.3850   12.6502   -9.2578 C   0  0  0  0  0  0  0  0  0  0  0  0
    9.0528   11.3818   -9.3680 O   0  0  0  0  0  0  0  0  0  0  0  0
    8.3780   15.4490   -6.1603 H   0  0  0  0  0  0  0  0  0  0  0  0
   10.0931   14.8801   -7.5824 H   0  0  0  0  0  0  0  0  0  0  0  0
    9.6274   11.2644   -8.5905 H   0  0  0  0  0  0  0  0  0  0  0  0
    9.4256   13.4300  -11.4497 C   0  0  0  0  0  0  0  0  0  0  0  0
    8.3091   13.8351  -12.2328 O   0  0  0  0  0  0  0  0  0  0  0  0
    8.1197   14.7669  -11.9939 H   0  0  0  0  0  0  0  0  0  0  0  0
 14 15  1  0
 14 16  1  0
  2  3  1  0
  2  9  1  0
  2 15  1  0
  3  4  1  0
  4  5  1  0
  4  1  1  0
  1 17  1  0
 17 18  1  0
 17 24  1  0
 18 19  1  0
 18 20  1  0
 19 26  1  0
 20 21  1  0
 20 22  1  0
 21 27  1  0
 22 23  1  0
 23 24  1  0
 23 29  1  0
 29 30  1  0
 30 31  1  0
 24 25  1  0
 25 28  1  0
  5  6  1  0
  5  7  1  0
  6 11  1  0
  7  8  1  0
  7  9  1  0
  8 12  1  0
  9 10  1  0
 10 13  1  0
M  END
> <minimizedAffinity>
-4.91228

> <CNNscore>
0.3499651551

> <CNNaffinity>
2.5525302887

> <CNN_VS>
0.8932966590

> <CNNaffinity_variance>
0.8771740794

$$$$



 31 32  0  0  0  0  0  0  0  0999 V2000
    5.0443   14.7023   -7.8874 O   0  0  0  0  0  0  0  0  0  0  0  0
    7.7468   12.8827   -6.2851 C   0  0  0  0  0  0  0  0  0  0  0  0
    6.9284   13.9787   -6.7230 O   0  0  0  0  0  0  0  0  0  0  0  0
    5.8471   13.5679   -7.5559 C   0  0  0  0  0  0  0  0  0  0  0  0
    6.3892   12.9340   -8.8573 C   0  0  0  0  0  0  0  0  0  0  0  0
    5.3362   12.4888   -9.7245 O   0  0  0  0  0  0  0  0  0  0  0  0
    7.3076   11.7495   -8.4861 C   0  0  0  0  0  0  0  0  0  0  0  0
    7.9066   11.1566   -9.6440 O   0  0  0  0  0  0  0  0  0  0  0  0
    8.3939   12.1900   -7.4924 C   0  0  0  0  0  0  0  0  0  0  0  0
    9.1922   11.0843   -7.0638 O   0  0  0  0  0  0  0  0  0  0  0  0
    4.9173   11.7043   -9.3319 H   0  0  0  0  0  0  0  0  0  0  0  0
    8.4403   11.8356  -10.0953 H   0  0  0  0  0  0  0  0  0  0  0  0
    8.6519   10.2752   -7.0923 H   0  0  0  0  0  0  0  0  0  0  0  0
    9.2181   12.4270   -4.4095 O   0  0  0  0  0  0  0  0  0  0  0  0
    8.8224   13.4370   -5.3408 C   0  0  0  0  0  0  0  0  0  0  0  0
    9.7907   12.8654   -3.7566 H   0  0  0  0  0  0  0  0  0  0  0  0
    3.6189   14.5185   -7.7296 C   0  0  0  0  0  0  0  0  0  0  0  0
    2.8389   14.9470   -8.9931 C   0  0  0  0  0  0  0  0  0  0  0  0
    2.9918   13.9808  -10.0464 O   0  0  0  0  0  0  0  0  0  0  0  0
    1.3382   15.1368   -8.7043 C   0  0  0  0  0  0  0  0  0  0  0  0
    0.6661   13.8836   -8.5991 O   0  0  0  0  0  0  0  0  0  0  0  0
    1.0783   15.9618   -7.5870 O   0  0  0  0  0  0  0  0  0  0  0  0
    1.6688   15.4904   -6.3782 C   0  0  0  0  0  0  0  0  0  0  0  0
    3.1988   15.3847   -6.5131 C   0  0  0  0  0  0  0  0  0  0  0  0
    3.7457   14.8719   -5.2864 O   0  0  0  0  0  0  0  0  0  0  0  0
    2.1868   13.4243  -10.0573 H   0  0  0  0  0  0  0  0  0  0  0  0
    1.1628   13.3027   -8.0020 H   0  0  0  0  0  0  0  0  0  0  0  0
    3.7901   13.9010   -5.3477 H   0  0  0  0  0  0  0  0  0  0  0  0
    1.2604   16.4497   -5.2467 C   0  0  0  0  0  0  0  0  0  0  0  0
    1.5117   17.8119   -5.5708 O   0  0  0  0  0  0  0  0  0  0  0  0
    1.1060   17.9730   -6.4486 H   0  0  0  0  0  0  0  0  0  0  0  0
 14 15  1  0
 14 16  1  0
  2  3  1  0
  2  9  1  0
  2 15  1  0
  3  4  1  0
  4  5  1  0
  4  1  1  0
  1 17  1  0
 17 18  1  0
 17 24  1  0
 18 19  1  0
 18 20  1  0
 19 26  1  0
 20 21  1  0
 20 22  1  0
 21 27  1  0
 22 23  1  0
 23 24  1  0
 23 29  1  0
 29 30  1  0
 30 31  1  0
 24 25  1  0
 25 28  1  0
  5  6  1  0
  5  7  1  0
  6 11  1  0
  7  8  1  0
  7  9  1  0
  8 12  1  0
  9 10  1  0
 10 13  1  0
M  END
> <minimizedAffinity>
-4.92378

> <CNNscore>
0.3222910464

> <CNNaffinity>
2.8987646103

> <CNN_VS>
0.9342458844

> <CNNaffinity_variance>
0.5230064988

$$$$



 31 32  0  0  0  0  0  0  0  0999 V2000
    7.7476   13.4976   -9.9461 O   0  0  0  0  0  0  0  0  0  0  0  0
    9.8242   10.6443  -10.7992 C   0  0  0  0  0  0  0  0  0  0  0  0
    9.4474   11.9580  -10.3579 O   0  0  0  0  0  0  0  0  0  0  0  0
    8.0477   12.2026  -10.4698 C   0  0  0  0  0  0  0  0  0  0  0  0
    7.6143   12.1436  -11.9524 C   0  0  0  0  0  0  0  0  0  0  0  0
    6.2066   12.3686  -12.1164 O   0  0  0  0  0  0  0  0  0  0  0  0
    8.0019   10.7639  -12.5271 C   0  0  0  0  0  0  0  0  0  0  0  0
    7.6956   10.6629  -13.9225 O   0  0  0  0  0  0  0  0  0  0  0  0
    9.4910   10.4700  -12.2875 C   0  0  0  0  0  0  0  0  0  0  0  0
    9.8438    9.1561  -12.7266 O   0  0  0  0  0  0  0  0  0  0  0  0
    5.7243   11.5936  -11.7822 H   0  0  0  0  0  0  0  0  0  0  0  0
    8.1967   11.3505  -14.3974 H   0  0  0  0  0  0  0  0  0  0  0  0
    9.0647    8.5778  -12.6493 H   0  0  0  0  0  0  0  0  0  0  0  0
   11.6443    9.0871  -10.4080 O   0  0  0  0  0  0  0  0  0  0  0  0
   11.3307   10.4737  -10.5602 C   0  0  0  0  0  0  0  0  0  0  0  0
   12.5740    9.0458  -10.1248 H   0  0  0  0  0  0  0  0  0  0  0  0
    6.8697   13.5118   -8.7974 C   0  0  0  0  0  0  0  0  0  0  0  0
    6.5354   12.0839   -8.3096 C   0  0  0  0  0  0  0  0  0  0  0  0
    7.6553   11.4966   -7.6262 O   0  0  0  0  0  0  0  0  0  0  0  0
    5.3147   12.0694   -7.3709 C   0  0  0  0  0  0  0  0  0  0  0  0
    5.6551   12.5370   -6.0675 O   0  0  0  0  0  0  0  0  0  0  0  0
    4.1933   12.7529   -7.8923 O   0  0  0  0  0  0  0  0  0  0  0  0
    4.4508   14.1200   -8.2037 C   0  0  0  0  0  0  0  0  0  0  0  0
    5.5794   14.2488   -9.2429 C   0  0  0  0  0  0  0  0  0  0  0  0
    5.8286   15.6416   -9.4977 O   0  0  0  0  0  0  0  0  0  0  0  0
    7.4931   11.5807   -6.6647 H   0  0  0  0  0  0  0  0  0  0  0  0
    6.1459   13.3700   -6.1439 H   0  0  0  0  0  0  0  0  0  0  0  0
    6.5175   15.9516   -8.8831 H   0  0  0  0  0  0  0  0  0  0  0  0
    3.1381   14.7460   -8.7060 C   0  0  0  0  0  0  0  0  0  0  0  0
    2.0775   13.8007   -8.7798 O   0  0  0  0  0  0  0  0  0  0  0  0
    2.0418   13.3478   -7.9111 H   0  0  0  0  0  0  0  0  0  0  0  0
 14 15  1  0
 14 16  1  0
  2  3  1  0
  2  9  1  0
  2 15  1  0
  3  4  1  0
  4  5  1  0
  4  1  1  0
  1 17  1  0
 17 18  1  0
 17 24  1  0
 18 19  1  0
 18 20  1  0
 19 26  1  0
 20 21  1  0
 20 22  1  0
 21 27  1  0
 22 23  1  0
 23 24  1  0
 23 29  1  0
 29 30  1  0
 30 31  1  0
 24 25  1  0
 25 28  1  0
  5  6  1  0
  5  7  1  0
  6 11  1  0
  7  8  1  0
  7  9  1  0
  8 12  1  0
  9 10  1  0
 10 13  1  0
M  END
> <minimizedAffinity>
-4.54706

> <CNNscore>
0.2965030074

> <CNNaffinity>
3.0513489246

> <CNN_VS>
0.9047341347

> <CNNaffinity_variance>
0.4539757669

$$$$



 31 32  0  0  0  0  0  0  0  0999 V2000
    7.1029   13.8221   -6.6165 O   0  0  0  0  0  0  0  0  0  0  0  0
    4.9649   14.1801   -9.5289 C   0  0  0  0  0  0  0  0  0  0  0  0
    5.9681   14.4744   -8.5441 O   0  0  0  0  0  0  0  0  0  0  0  0
    6.0380   13.4948   -7.5110 C   0  0  0  0  0  0  0  0  0  0  0  0
    4.7087   13.4570   -6.7230 C   0  0  0  0  0  0  0  0  0  0  0  0
    4.7238   12.4727   -5.6790 O   0  0  0  0  0  0  0  0  0  0  0  0
    3.5565   13.1673   -7.7092 C   0  0  0  0  0  0  0  0  0  0  0  0
    2.2806   13.1899   -7.0590 O   0  0  0  0  0  0  0  0  0  0  0  0
    3.5742   14.1633   -8.8793 C   0  0  0  0  0  0  0  0  0  0  0  0
    2.5740   13.8490   -9.8510 O   0  0  0  0  0  0  0  0  0  0  0  0
    4.6915   11.5884   -6.0815 H   0  0  0  0  0  0  0  0  0  0  0  0
    2.1472   14.0755   -6.6750 H   0  0  0  0  0  0  0  0  0  0  0  0
    2.4143   12.8890   -9.8402 H   0  0  0  0  0  0  0  0  0  0  0  0
    5.3167   14.6483  -11.8843 O   0  0  0  0  0  0  0  0  0  0  0  0
    5.0371   15.2564  -10.6209 C   0  0  0  0  0  0  0  0  0  0  0  0
    5.4871   15.3760  -12.5070 H   0  0  0  0  0  0  0  0  0  0  0  0
    8.1582   12.8381   -6.5251 C   0  0  0  0  0  0  0  0  0  0  0  0
    9.2390   13.2455   -5.4982 C   0  0  0  0  0  0  0  0  0  0  0  0
    8.7641   13.0711   -4.1526 O   0  0  0  0  0  0  0  0  0  0  0  0
   10.5361   12.4352   -5.6783 C   0  0  0  0  0  0  0  0  0  0  0  0
   10.4020   11.1154   -5.1554 O   0  0  0  0  0  0  0  0  0  0  0  0
   11.0133   12.4219   -7.0082 O   0  0  0  0  0  0  0  0  0  0  0  0
   10.0751   11.9020   -7.9472 C   0  0  0  0  0  0  0  0  0  0  0  0
    8.7739   12.7248   -7.9444 C   0  0  0  0  0  0  0  0  0  0  0  0
    7.8468   12.1436   -8.8769 O   0  0  0  0  0  0  0  0  0  0  0  0
    9.1332   12.2300   -3.8147 H   0  0  0  0  0  0  0  0  0  0  0  0
    9.5819   10.7200   -5.4899 H   0  0  0  0  0  0  0  0  0  0  0  0
    7.2984   11.4919   -8.4046 H   0  0  0  0  0  0  0  0  0  0  0  0
   10.7451   11.8979   -9.3323 C   0  0  0  0  0  0  0  0  0  0  0  0
   10.2909   10.8287  -10.1536 O   0  0  0  0  0  0  0  0  0  0  0  0
    9.3111   10.8599  -10.1417 H   0  0  0  0  0  0  0  0  0  0  0  0
 14 15  1  0
 14 16  1  0
  2  3  1  0
  2  9  1  0
  2 15  1  0
  3  4  1  0
  4  5  1  0
  4  1  1  0
  1 17  1  0
 17 18  1  0
 17 24  1  0
 18 19  1  0
 18 20  1  0
 19 26  1  0
 20 21  1  0
 20 22  1  0
 21 27  1  0
 22 23  1  0
 23 24  1  0
 23 29  1  0
 29 30  1  0
 30 31  1  0
 24 25  1  0
 25 28  1  0
  5  6  1  0
  5  7  1  0
  6 11  1  0
  7  8  1  0
  7  9  1  0
  8 12  1  0
  9 10  1  0
 10 13  1  0
M  END
> <minimizedAffinity>
-5.88287

> <CNNscore>
0.2964733243

> <CNNaffinity>
2.9613838196

> <CNN_VS>
0.8779712915

> <CNNaffinity_variance>
0.6556175351

$$$$
