@<TRIPOS>MOLECULE
UD1
 46 48 0 0 0
SMALL
GASTEIGER

@<TRIPOS>ATOM
      1 P          20.9950   70.9284   -3.6043 P.3     1  UNL1        0.2189
      2 O          21.5283   71.5641   -4.8292 O.2     1  UNL1       -0.5170
      3 O          20.5252   69.4255   -3.9405 O.3     1  UNL1       -0.4371
      4 O          19.7359   71.7753   -3.0655 O.3     1  UNL1       -0.3112
      5 C          18.7823   70.8321   -2.5744 C.3     1  UNL1        0.1811
      6 C          17.0715   70.5545   -5.7246 C.3     1  UNL1        0.2383
      7 C          17.0210   69.1256   -5.1282 C.3     1  UNL1        0.1895
      8 O          15.8418   68.4380   -5.5477 O.3     1  UNL1       -0.3779
      9 C          16.9830   69.4099   -3.6041 C.3     1  UNL1        0.1713
     10 C          17.5466   70.8384   -3.4756 C.3     1  UNL1        0.1764
     11 O          17.9068   71.2785   -4.7962 O.3     1  UNL1       -0.3308
     12 O          15.6407   69.3491   -3.1170 O.3     1  UNL1       -0.3794
     13 H          15.8714   67.5593   -5.1445 H       1  UNL1        0.2106
     14 H          15.3252   68.4501   -3.2796 H       1  UNL1        0.2105
     15 N          17.6743   70.5399   -7.0579 N.ar    1  UNL1       -0.2551
     16 C          16.8862   70.4654   -8.1446 C.ar    1  UNL1        0.3323
     17 N          17.4130   70.4541   -9.3834 N.ar    1  UNL1       -0.2743
     18 C          18.7494   70.5085   -9.5540 C.ar    1  UNL1        0.2626
     19 C          19.5909   70.5811   -8.4185 C.ar    1  UNL1        0.0795
     20 C          19.0358   70.5963   -7.1877 C.ar    1  UNL1        0.0869
     21 O          15.6791   70.4157   -8.0070 O.2     1  UNL1       -0.2464
     22 O          19.2270   70.4935  -10.6734 O.2     1  UNL1       -0.2670
     23 H          16.8294   70.4047  -10.1561 H       1  UNL1        0.1734
     24 O          22.1408   70.8936   -2.4752 O.3     1  UNL1       -0.2703
     25 P          22.9795   72.2591   -2.6218 P.3     1  UNL1        0.2208
     26 O          22.0966   73.3268   -3.1408 O.2     1  UNL1       -0.5170
     27 O          24.2027   72.0313   -3.6436 O.3     1  UNL1       -0.4371
     28 O          23.5572   72.6925   -1.1835 O.3     1  UNL1       -0.2865
     29 C          22.6783   72.1421   -0.2008 C.3     1  UNL1        0.2611
     30 C          22.0057   73.2799    0.5693 C.3     1  UNL1        0.1582
     31 C          23.0851   74.1436    1.2316 C.3     1  UNL1        0.1625
     32 C          23.9927   73.2366    2.0693 C.3     1  UNL1        0.1686
     33 C          24.5179   72.1036    1.1852 C.3     1  UNL1        0.1760
     34 O          22.4679   75.1186    2.0741 O.3     1  UNL1       -0.3801
     35 O          25.0909   73.9969    2.5769 O.3     1  UNL1       -0.3794
     36 O          23.4250   71.3255    0.6987 O.3     1  UNL1       -0.3263
     37 H          23.1815   75.6384    2.4691 H       1  UNL1        0.2105
     38 H          25.6359   73.3887    3.0962 H       1  UNL1        0.2105
     39 C          19.8760   74.0163   -0.3560 C.2     1  UNL1        0.2231
     40 C          19.0679   74.8604   -1.3084 C.3     1  UNL1        0.0946
     41 N          21.2203   74.1000   -0.3554 N.am    1  UNL1       -0.2994
     42 O          19.3158   73.2611    0.4095 O.2     1  UNL1       -0.2751
     43 H          21.6688   74.7042   -0.9680 H       1  UNL1        0.1496
     44 C          25.4517   71.2101    2.0043 C.3     1  UNL1        0.1693
     45 O          24.7542   70.0272    2.3996 O.3     1  UNL1       -0.3794
     46 H          25.3764   69.4936    2.9122 H       1  UNL1        0.2105
@<TRIPOS>BOND
     1    29    30    1
     2    29    28    1
     3    29    36    1
     4    30    31    1
     5    30    41    1
     6    31    32    1
     7    31    34    1
     8    32    33    1
     9    32    35    1
    10    33    44    1
    11    33    36    1
    12    44    45    1
    13    39    40    1
    14    39    41   am
    15    39    42    2
    16    41    43    1
    17    28    25    1
    18    34    37    1
    19    35    38    1
    20    45    46    1
    21    15    16   ar
    22    15    20   ar
    23    15     6    1
    24    16    17   ar
    25    16    21    2
    26    17    18   ar
    27    17    23    1
    28    18    19   ar
    29    18    22    2
    30    19    20   ar
    31     6     7    1
    32     6    11    1
    33     7     8    1
    34     7     9    1
    35     8    13    1
    36     9    10    1
    37     9    12    1
    38    10    11    1
    39    10     5    1
    40    12    14    1
    41     5     4    1
    42     4     1    1
    43     1     2    2
    44     1     3    1
    45     1    24    1
    46    24    25    1
    47    25    26    2
    48    25    27    1
@<TRIPOS>MOLECULE
UD1
 46 48 0 0 0
SMALL
GASTEIGER

@<TRIPOS>ATOM
      1 P          20.8754   71.4083   -2.4338 P.3     1  UNL1        0.2189
      2 O          21.0922   72.8320   -2.7726 O.2     1  UNL1       -0.5170
      3 O          22.2466   70.5913   -2.6454 O.3     1  UNL1       -0.4371
      4 O          19.7345   70.7970   -3.3916 O.3     1  UNL1       -0.3112
      5 C          18.5258   70.7705   -2.6309 C.3     1  UNL1        0.1811
      6 C          16.9315   70.5016   -5.8423 C.3     1  UNL1        0.2383
      7 C          16.8383   69.0764   -5.2421 C.3     1  UNL1        0.1895
      8 O          15.6662   68.4033   -5.7030 O.3     1  UNL1       -0.3779
      9 C          16.7468   69.3687   -3.7217 C.3     1  UNL1        0.1713
     10 C          17.3252   70.7897   -3.5782 C.3     1  UNL1        0.1764
     11 O          17.7412   71.2183   -4.8861 O.3     1  UNL1       -0.3308
     12 O          15.3863   69.3289   -3.2855 O.3     1  UNL1       -0.3794
     13 H          15.6681   67.5263   -5.2951 H       1  UNL1        0.2106
     14 H          15.0645   68.4336   -3.4560 H       1  UNL1        0.2105
     15 N          17.5839   70.4721   -7.1518 N.ar    1  UNL1       -0.2551
     16 C          16.8372   70.5080   -8.2692 C.ar    1  UNL1        0.3323
     17 N          17.4105   70.4861   -9.4870 N.ar    1  UNL1       -0.2743
     18 C          18.7519   70.4179   -9.6054 C.ar    1  UNL1        0.2626
     19 C          19.5497   70.3735   -8.4373 C.ar    1  UNL1        0.0795
     20 C          18.9488   70.4022   -7.2284 C.ar    1  UNL1        0.0869
     21 O          15.6261   70.5697   -8.1788 O.2     1  UNL1       -0.2464
     22 O          19.2711   70.3932  -10.7059 O.2     1  UNL1       -0.2670
     23 H          16.8568   70.5175  -10.2823 H       1  UNL1        0.1734
     24 O          20.4087   71.2869   -0.8987 O.3     1  UNL1       -0.2703
     25 P          21.7481   71.2087   -0.0104 P.3     1  UNL1        0.2208
     26 O          22.9065   70.9319   -0.8882 O.2     1  UNL1       -0.5170
     27 O          21.6046   70.0288    1.0755 O.3     1  UNL1       -0.4371
     28 O          21.9729   72.6101    0.7485 O.3     1  UNL1       -0.2865
     29 C          21.7892   72.3603    2.1432 C.3     1  UNL1        0.2611
     30 C          21.6257   73.6922    2.8776 C.3     1  UNL1        0.1582
     31 C          22.8731   74.5512    2.6414 C.3     1  UNL1        0.1625
     32 C          24.1104   73.7372    3.0348 C.3     1  UNL1        0.1686
     33 C          24.0879   72.4030    2.2860 C.3     1  UNL1        0.1760
     34 O          22.7992   75.7329    3.4411 O.3     1  UNL1       -0.3801
     35 O          25.2907   74.4629    2.6858 O.3     1  UNL1       -0.3794
     36 O          22.9239   71.6636    2.6533 O.3     1  UNL1       -0.3263
     37 H          23.6013   76.2424    3.2615 H       1  UNL1        0.2105
     38 H          26.0439   73.9155    2.9494 H       1  UNL1        0.2105
     39 C          19.2979   74.3828    3.0734 C.2     1  UNL1        0.2231
     40 C          18.0823   75.1024    2.5472 C.3     1  UNL1        0.0946
     41 N          20.4447   74.3914    2.3671 N.am    1  UNL1       -0.2994
     42 O          19.2434   73.7953    4.1327 O.2     1  UNL1       -0.2751
     43 H          20.4885   74.8613    1.5192 H       1  UNL1        0.1496
     44 C          25.3366   71.5958    2.6473 C.3     1  UNL1        0.1693
     45 O          25.0195   70.2024    2.6490 O.3     1  UNL1       -0.3794
     46 H          25.8310   69.7310    2.8809 H       1  UNL1        0.2105
@<TRIPOS>BOND
     1    29    30    1
     2    29    28    1
     3    29    36    1
     4    30    31    1
     5    30    41    1
     6    31    32    1
     7    31    34    1
     8    32    33    1
     9    32    35    1
    10    33    44    1
    11    33    36    1
    12    44    45    1
    13    39    40    1
    14    39    41   am
    15    39    42    2
    16    41    43    1
    17    28    25    1
    18    34    37    1
    19    35    38    1
    20    45    46    1
    21    15    16   ar
    22    15    20   ar
    23    15     6    1
    24    16    17   ar
    25    16    21    2
    26    17    18   ar
    27    17    23    1
    28    18    19   ar
    29    18    22    2
    30    19    20   ar
    31     6     7    1
    32     6    11    1
    33     7     8    1
    34     7     9    1
    35     8    13    1
    36     9    10    1
    37     9    12    1
    38    10    11    1
    39    10     5    1
    40    12    14    1
    41     5     4    1
    42     4     1    1
    43     1     2    2
    44     1     3    1
    45     1    24    1
    46    24    25    1
    47    25    26    2
    48    25    27    1
@<TRIPOS>MOLECULE
UD1
 46 48 0 0 0
SMALL
GASTEIGER

@<TRIPOS>ATOM
      1 P          21.1220   70.8419   -3.3083 P.3     1  UNL1        0.2189
      2 O          20.7323   69.4875   -3.7583 O.2     1  UNL1       -0.5170
      3 O          21.8973   70.7375   -1.9009 O.3     1  UNL1       -0.4371
      4 O          19.8026   71.7469   -3.1271 O.3     1  UNL1       -0.3112
      5 C          18.8024   70.9088   -2.5462 C.3     1  UNL1        0.1811
      6 C          17.0990   70.5771   -5.6951 C.3     1  UNL1        0.2383
      7 C          17.0728   69.1521   -5.0877 C.3     1  UNL1        0.1895
      8 O          15.9060   68.4410   -5.5025 O.3     1  UNL1       -0.3779
      9 C          17.0288   69.4477   -3.5659 C.3     1  UNL1        0.1713
     10 C          17.5674   70.8866   -3.4482 C.3     1  UNL1        0.1764
     11 O          17.9209   71.3226   -4.7719 O.3     1  UNL1       -0.3308
     12 O          15.6874   69.3673   -3.0791 O.3     1  UNL1       -0.3794
     13 H          15.9506   67.5661   -5.0925 H       1  UNL1        0.2106
     14 H          15.3876   68.4618   -3.2349 H       1  UNL1        0.2105
     15 N          17.7028   70.5625   -7.0280 N.ar    1  UNL1       -0.2551
     16 C          16.9176   70.4570   -8.1141 C.ar    1  UNL1        0.3323
     17 N          17.4454   70.4450   -9.3525 N.ar    1  UNL1       -0.2743
     18 C          18.7802   70.5300   -9.5231 C.ar    1  UNL1        0.2626
     19 C          19.6189   70.6355   -8.3881 C.ar    1  UNL1        0.0795
     20 C          19.0627   70.6506   -7.1577 C.ar    1  UNL1        0.0869
     21 O          15.7119   70.3795   -7.9765 O.2     1  UNL1       -0.2464
     22 O          19.2588   70.5144  -10.6420 O.2     1  UNL1       -0.2670
     23 H          16.8637   70.3730  -10.1249 H       1  UNL1        0.1734
     24 O          22.0876   71.5148   -4.4054 O.3     1  UNL1       -0.2703
     25 P          23.2982   72.2034   -3.5993 P.3     1  UNL1        0.2208
     26 O          24.1517   72.9592   -4.5423 O.2     1  UNL1       -0.5170
     27 O          24.1772   71.0657   -2.8748 O.3     1  UNL1       -0.4371
     28 O          22.7038   73.2075   -2.4907 O.3     1  UNL1       -0.2865
     29 C          23.8169   73.8887   -1.9091 C.3     1  UNL1        0.2611
     30 C          23.7271   73.7935   -0.3850 C.3     1  UNL1        0.1582
     31 C          22.4071   74.4192    0.0793 C.3     1  UNL1        0.1625
     32 C          22.3092   75.8375   -0.4923 C.3     1  UNL1        0.1686
     33 C          22.5030   75.7781   -2.0089 C.3     1  UNL1        0.1760
     34 O          22.3781   74.4716    1.5069 O.3     1  UNL1       -0.3801
     35 O          21.0235   76.3852   -0.1944 O.3     1  UNL1       -0.3794
     36 O          23.7970   75.2571   -2.3096 O.3     1  UNL1       -0.3263
     37 H          21.5327   74.8706    1.7547 H       1  UNL1        0.2105
     38 H          21.0045   77.2760   -0.5721 H       1  UNL1        0.2105
     39 C          24.4528   72.0270    1.1273 C.2     1  UNL1        0.2231
     40 C          24.5006   70.5795    1.5452 C.3     1  UNL1        0.0946
     41 N          23.7734   72.3875    0.0216 N.am    1  UNL1       -0.2994
     42 O          25.0268   72.8675    1.7863 O.2     1  UNL1       -0.2751
     43 H          23.3141   71.7150   -0.5061 H       1  UNL1        0.1496
     44 C          22.3746   77.1861   -2.5938 C.3     1  UNL1        0.1693
     45 O          21.5502   77.1445   -3.7603 O.3     1  UNL1       -0.3794
     46 H          21.4956   78.0492   -4.0968 H       1  UNL1        0.2105
@<TRIPOS>BOND
     1    29    30    1
     2    29    28    1
     3    29    36    1
     4    30    31    1
     5    30    41    1
     6    31    32    1
     7    31    34    1
     8    32    33    1
     9    32    35    1
    10    33    44    1
    11    33    36    1
    12    44    45    1
    13    39    40    1
    14    39    41   am
    15    39    42    2
    16    41    43    1
    17    28    25    1
    18    34    37    1
    19    35    38    1
    20    45    46    1
    21    15    16   ar
    22    15    20   ar
    23    15     6    1
    24    16    17   ar
    25    16    21    2
    26    17    18   ar
    27    17    23    1
    28    18    19   ar
    29    18    22    2
    30    19    20   ar
    31     6     7    1
    32     6    11    1
    33     7     8    1
    34     7     9    1
    35     8    13    1
    36     9    10    1
    37     9    12    1
    38    10    11    1
    39    10     5    1
    40    12    14    1
    41     5     4    1
    42     4     1    1
    43     1     2    2
    44     1     3    1
    45     1    24    1
    46    24    25    1
    47    25    26    2
    48    25    27    1
@<TRIPOS>MOLECULE
UD1
 46 48 0 0 0
SMALL
GASTEIGER

@<TRIPOS>ATOM
      1 P          20.6637   71.4492   -2.0408 P.3     1  UNL1        0.2189
      2 O          20.9443   72.9018   -2.0339 O.2     1  UNL1       -0.5170
      3 O          22.0074   70.6449   -2.4152 O.3     1  UNL1       -0.4371
      4 O          19.5253   71.1283   -3.1335 O.3     1  UNL1       -0.3112
      5 C          18.3018   70.9536   -2.4174 C.3     1  UNL1        0.1811
      6 C          16.8469   70.5789   -5.6839 C.3     1  UNL1        0.2383
      7 C          16.8526   69.1460   -5.0949 C.3     1  UNL1        0.1895
      8 O          15.7575   68.3814   -5.6000 O.3     1  UNL1       -0.3779
      9 C          16.6849   69.4172   -3.5771 C.3     1  UNL1        0.1713
     10 C          17.1371   70.8803   -3.4060 C.3     1  UNL1        0.1764
     11 O          17.5606   71.3528   -4.6963 O.3     1  UNL1       -0.3308
     12 O          15.3183   69.2606   -3.1890 O.3     1  UNL1       -0.3794
     13 H          15.8187   67.5043   -5.1970 H       1  UNL1        0.2106
     14 H          15.0784   68.3431   -3.3753 H       1  UNL1        0.2105
     15 N          17.5442   70.6146   -6.9700 N.ar    1  UNL1       -0.2551
     16 C          16.8419   70.5114   -8.1117 C.ar    1  UNL1        0.3323
     17 N          17.4564   70.5451   -9.3090 N.ar    1  UNL1       -0.2743
     18 C          18.7966   70.6745   -9.3814 C.ar    1  UNL1        0.2626
     19 C          19.5487   70.7781   -8.1871 C.ar    1  UNL1        0.0795
     20 C          18.9063   70.7469   -6.9998 C.ar    1  UNL1        0.0869
     21 O          15.6325   70.3942   -8.0628 O.2     1  UNL1       -0.2464
     22 O          19.3537   70.7002  -10.4632 O.2     1  UNL1       -0.2670
     23 H          16.9337   70.4741  -10.1225 H       1  UNL1        0.1734
     24 O          20.1529   70.9943   -0.5845 O.3     1  UNL1       -0.2703
     25 P          21.3482   71.3075    0.4462 P.3     1  UNL1        0.2208
     26 O          22.4128   72.0644   -0.2485 O.2     1  UNL1       -0.5170
     27 O          21.9521   69.9237    1.0054 O.3     1  UNL1       -0.4371
     28 O          20.7839   72.1804    1.6751 O.3     1  UNL1       -0.2865
     29 C          21.5718   73.3708    1.7342 C.3     1  UNL1        0.2611
     30 C          22.5052   73.2991    2.9440 C.3     1  UNL1        0.1582
     31 C          21.6652   73.1425    4.2166 C.3     1  UNL1        0.1625
     32 C          20.6267   74.2684    4.2600 C.3     1  UNL1        0.1686
     33 C          19.8329   74.2650    2.9519 C.3     1  UNL1        0.1760
     34 O          22.5134   73.2244    5.3634 O.3     1  UNL1       -0.3801
     35 O          19.7392   74.0579    5.3599 O.3     1  UNL1       -0.3794
     36 O          20.7124   74.5024    1.8536 O.3     1  UNL1       -0.3263
     37 H          21.9453   73.1208    6.1391 H       1  UNL1        0.2105
     38 H          19.1030   74.7870    5.3495 H       1  UNL1        0.2105
     39 C          24.6745   72.3325    2.4019 C.2     1  UNL1        0.2231
     40 C          25.5970   71.1491    2.2570 C.3     1  UNL1        0.0946
     41 N          23.4019   72.1499    2.8035 N.am    1  UNL1       -0.2994
     42 O          25.0778   73.4492    2.1562 O.2     1  UNL1       -0.2751
     43 H          23.0788   71.2563    3.0000 H       1  UNL1        0.1496
     44 C          18.7709   75.3656    2.9984 C.3     1  UNL1        0.1693
     45 O          17.5070   74.8253    2.6073 O.3     1  UNL1       -0.3794
     46 H          16.8680   75.5495    2.6498 H       1  UNL1        0.2105
@<TRIPOS>BOND
     1    29    30    1
     2    29    28    1
     3    29    36    1
     4    30    31    1
     5    30    41    1
     6    31    32    1
     7    31    34    1
     8    32    33    1
     9    32    35    1
    10    33    44    1
    11    33    36    1
    12    44    45    1
    13    39    40    1
    14    39    41   am
    15    39    42    2
    16    41    43    1
    17    28    25    1
    18    34    37    1
    19    35    38    1
    20    45    46    1
    21    15    16   ar
    22    15    20   ar
    23    15     6    1
    24    16    17   ar
    25    16    21    2
    26    17    18   ar
    27    17    23    1
    28    18    19   ar
    29    18    22    2
    30    19    20   ar
    31     6     7    1
    32     6    11    1
    33     7     8    1
    34     7     9    1
    35     8    13    1
    36     9    10    1
    37     9    12    1
    38    10    11    1
    39    10     5    1
    40    12    14    1
    41     5     4    1
    42     4     1    1
    43     1     2    2
    44     1     3    1
    45     1    24    1
    46    24    25    1
    47    25    26    2
    48    25    27    1
@<TRIPOS>MOLECULE
UD1
 46 48 0 0 0
SMALL
GASTEIGER

@<TRIPOS>ATOM
      1 P          21.0245   71.0522   -3.4277 P.3     1  UNL1        0.2189
      2 O          22.1694   71.7133   -4.0917 O.2     1  UNL1       -0.5170
      3 O          20.6255   69.7227   -4.2437 O.3     1  UNL1       -0.4371
      4 O          19.7683   72.0590   -3.3968 O.3     1  UNL1       -0.3112
      5 C          18.7222   71.3940   -2.6870 C.3     1  UNL1        0.1811
      6 C          17.0645   70.7579   -5.8135 C.3     1  UNL1        0.2383
      7 C          17.0882   69.3829   -5.0999 C.3     1  UNL1        0.1895
      8 O          15.9543   68.5966   -5.4677 O.3     1  UNL1       -0.3779
      9 C          17.0175   69.7906   -3.6052 C.3     1  UNL1        0.1713
     10 C          17.4981   71.2546   -3.5933 C.3     1  UNL1        0.1764
     11 O          17.8474   71.6031   -4.9438 O.3     1  UNL1       -0.3308
     12 O          15.6755   69.6939   -3.1231 O.3     1  UNL1       -0.3794
     13 H          16.0290   67.7577   -4.9922 H       1  UNL1        0.2106
     14 H          15.4129   68.7680   -3.2118 H       1  UNL1        0.2105
     15 N          17.6818   70.6667   -7.1372 N.ar    1  UNL1       -0.2551
     16 C          16.9072   70.5023   -8.2236 C.ar    1  UNL1        0.3323
     17 N          17.4475   70.4192   -9.4539 N.ar    1  UNL1       -0.2743
     18 C          18.7841   70.4909   -9.6153 C.ar    1  UNL1        0.2626
     19 C          19.6117   70.6579   -8.4795 C.ar    1  UNL1        0.0795
     20 C          19.0432   70.7437   -7.2577 C.ar    1  UNL1        0.0869
     21 O          15.7000   70.4359   -8.0943 O.2     1  UNL1       -0.2464
     22 O          19.2740   70.4111  -10.7266 O.2     1  UNL1       -0.2670
     23 H          16.8734   70.3054  -10.2270 H       1  UNL1        0.1734
     24 O          21.4323   70.6569   -1.9223 O.3     1  UNL1       -0.2703
     25 P          22.7333   71.5274   -1.5493 P.3     1  UNL1        0.2208
     26 O          22.5105   72.9379   -1.9361 O.2     1  UNL1       -0.5170
     27 O          24.0110   70.9501   -2.3408 O.3     1  UNL1       -0.4371
     28 O          23.0018   71.4416    0.0353 O.3     1  UNL1       -0.2865
     29 C          23.2641   72.7724    0.4839 C.3     1  UNL1        0.2611
     30 C          23.7299   72.7318    1.9404 C.3     1  UNL1        0.1582
     31 C          22.6404   72.0769    2.7970 C.3     1  UNL1        0.1625
     32 C          21.3184   72.8132    2.5555 C.3     1  UNL1        0.1686
     33 C          21.0330   72.8449    1.0525 C.3     1  UNL1        0.1760
     34 O          22.9975   72.1676    4.1774 O.3     1  UNL1       -0.3801
     35 O          20.2604   72.1295    3.2299 O.3     1  UNL1       -0.3794
     36 O          22.0742   73.5511    0.3789 O.3     1  UNL1       -0.3263
     37 H          22.2867   71.7443    4.6783 H       1  UNL1        0.2105
     38 H          19.4485   72.6248    3.0511 H       1  UNL1        0.2105
     39 C          26.0389   72.4652    2.6695 C.2     1  UNL1        0.2231
     40 C          27.3108   71.6624    2.7693 C.3     1  UNL1        0.0946
     41 N          24.9655   71.9520    2.0381 N.am    1  UNL1       -0.2994
     42 O          25.9819   73.5739    3.1572 O.2     1  UNL1       -0.2751
     43 H          25.0110   71.0650    1.6475 H       1  UNL1        0.1496
     44 C          19.6982   73.5499    0.8029 C.3     1  UNL1        0.1693
     45 O          19.2644   74.1891    2.0052 O.3     1  UNL1       -0.3794
     46 H          18.4224   74.6198    1.8050 H       1  UNL1        0.2105
@<TRIPOS>BOND
     1    29    30    1
     2    29    28    1
     3    29    36    1
     4    30    31    1
     5    30    41    1
     6    31    32    1
     7    31    34    1
     8    32    33    1
     9    32    35    1
    10    33    44    1
    11    33    36    1
    12    44    45    1
    13    39    40    1
    14    39    41   am
    15    39    42    2
    16    41    43    1
    17    28    25    1
    18    34    37    1
    19    35    38    1
    20    45    46    1
    21    15    16   ar
    22    15    20   ar
    23    15     6    1
    24    16    17   ar
    25    16    21    2
    26    17    18   ar
    27    17    23    1
    28    18    19   ar
    29    18    22    2
    30    19    20   ar
    31     6     7    1
    32     6    11    1
    33     7     8    1
    34     7     9    1
    35     8    13    1
    36     9    10    1
    37     9    12    1
    38    10    11    1
    39    10     5    1
    40    12    14    1
    41     5     4    1
    42     4     1    1
    43     1     2    2
    44     1     3    1
    45     1    24    1
    46    24    25    1
    47    25    26    2
    48    25    27    1
@<TRIPOS>MOLECULE
UD1
 46 48 0 0 0
SMALL
GASTEIGER

@<TRIPOS>ATOM
      1 P          20.8685   70.8873   -2.8014 P.3     1  UNL1        0.2189
      2 O          20.9666   69.6879   -3.6620 O.2     1  UNL1       -0.5170
      3 O          20.5575   70.4372   -1.2870 O.3     1  UNL1       -0.4371
      4 O          19.6793   71.8334   -3.3339 O.3     1  UNL1       -0.3112
      5 C          18.5242   71.5262   -2.5518 C.3     1  UNL1        0.1811
      6 C          16.9886   70.7328   -5.7045 C.3     1  UNL1        0.2383
      7 C          17.1399   69.3657   -4.9915 C.3     1  UNL1        0.1895
      8 O          16.0973   68.4696   -5.3778 O.3     1  UNL1       -0.3779
      9 C          17.0050   69.7608   -3.4979 C.3     1  UNL1        0.1713
     10 C          17.3348   71.2658   -3.4775 C.3     1  UNL1        0.1764
     11 O          17.6682   71.6509   -4.8220 O.3     1  UNL1       -0.3308
     12 O          15.6722   69.5278   -3.0372 O.3     1  UNL1       -0.3794
     13 H          16.2490   67.6415   -4.9017 H       1  UNL1        0.2106
     14 H          15.5061   68.5803   -3.1306 H       1  UNL1        0.2105
     15 N          17.6326   70.7075   -7.0183 N.ar    1  UNL1       -0.2551
     16 C          16.8921   70.4904   -8.1192 C.ar    1  UNL1        0.3323
     17 N          17.4572   70.4657   -9.3409 N.ar    1  UNL1       -0.2743
     18 C          18.7856   70.6506   -9.4789 C.ar    1  UNL1        0.2626
     19 C          19.5779   70.8742   -8.3278 C.ar    1  UNL1        0.0795
     20 C          18.9845   70.8993   -7.1151 C.ar    1  UNL1        0.0869
     21 O          15.6927   70.3220   -8.0110 O.2     1  UNL1       -0.2464
     22 O          19.2982   70.6237  -10.5825 O.2     1  UNL1       -0.2670
     23 H          16.9072   70.3126  -10.1246 H       1  UNL1        0.1734
     24 O          22.2587   71.6959   -2.8472 O.3     1  UNL1       -0.2703
     25 P          22.3075   72.4568   -4.2642 P.3     1  UNL1        0.2208
     26 O          21.5863   71.6569   -5.2785 O.2     1  UNL1       -0.5170
     27 O          23.8400   72.6450   -4.7206 O.3     1  UNL1       -0.4371
     28 O          21.6098   73.9004   -4.1239 O.3     1  UNL1       -0.2865
     29 C          22.6438   74.8761   -4.2656 C.3     1  UNL1        0.2611
     30 C          22.5611   75.8715   -3.1070 C.3     1  UNL1        0.1582
     31 C          21.1815   76.5396   -3.1177 C.3     1  UNL1        0.1625
     32 C          20.9363   77.1354   -4.5080 C.3     1  UNL1        0.1686
     33 C          21.1386   76.0437   -5.5609 C.3     1  UNL1        0.1760
     34 O          21.1440   77.5764   -2.1354 O.3     1  UNL1       -0.3801
     35 O          19.5995   77.6340   -4.5853 O.3     1  UNL1       -0.3794
     36 O          22.4810   75.5626   -5.5048 O.3     1  UNL1       -0.3263
     37 H          20.2608   77.9683   -2.1764 H       1  UNL1        0.2105
     38 H          19.4878   77.9984   -5.4749 H       1  UNL1        0.2105
     39 C          23.9982   74.8907   -1.4021 C.2     1  UNL1        0.2231
     40 C          24.1963   74.1626   -0.0971 C.3     1  UNL1        0.0946
     41 N          22.7540   75.1646   -1.8391 N.am    1  UNL1       -0.2994
     42 O          24.9593   75.2294   -2.0593 O.2     1  UNL1       -0.2751
     43 H          21.9847   74.8935   -1.3135 H       1  UNL1        0.1496
     44 C          20.8642   76.6205   -6.9512 C.3     1  UNL1        0.1693
     45 O          21.0967   75.6145   -7.9392 O.3     1  UNL1       -0.3794
     46 H          20.9132   76.0183   -8.7982 H       1  UNL1        0.2105
@<TRIPOS>BOND
     1    29    30    1
     2    29    28    1
     3    29    36    1
     4    30    31    1
     5    30    41    1
     6    31    32    1
     7    31    34    1
     8    32    33    1
     9    32    35    1
    10    33    44    1
    11    33    36    1
    12    44    45    1
    13    39    40    1
    14    39    41   am
    15    39    42    2
    16    41    43    1
    17    28    25    1
    18    34    37    1
    19    35    38    1
    20    45    46    1
    21    15    16   ar
    22    15    20   ar
    23    15     6    1
    24    16    17   ar
    25    16    21    2
    26    17    18   ar
    27    17    23    1
    28    18    19   ar
    29    18    22    2
    30    19    20   ar
    31     6     7    1
    32     6    11    1
    33     7     8    1
    34     7     9    1
    35     8    13    1
    36     9    10    1
    37     9    12    1
    38    10    11    1
    39    10     5    1
    40    12    14    1
    41     5     4    1
    42     4     1    1
    43     1     2    2
    44     1     3    1
    45     1    24    1
    46    24    25    1
    47    25    26    2
    48    25    27    1
@<TRIPOS>MOLECULE
UD1
 46 48 0 0 0
SMALL
GASTEIGER

@<TRIPOS>ATOM
      1 P          20.8982   71.4428   -2.2866 P.3     1  UNL1        0.2189
      2 O          21.2909   72.8239   -2.6432 O.2     1  UNL1       -0.5170
      3 O          22.1668   70.4648   -2.4506 O.3     1  UNL1       -0.4371
      4 O          19.7147   70.9530   -3.2624 O.3     1  UNL1       -0.3112
      5 C          18.5056   71.0019   -2.5034 C.3     1  UNL1        0.1811
      6 C          16.9334   70.5739   -5.7084 C.3     1  UNL1        0.2383
      7 C          16.9685   69.1495   -5.1000 C.3     1  UNL1        0.1895
      8 O          15.8596   68.3724   -5.5536 O.3     1  UNL1       -0.3779
      9 C          16.8553   69.4414   -3.5810 C.3     1  UNL1        0.1713
     10 C          17.3057   70.9089   -3.4472 C.3     1  UNL1        0.1764
     11 O          17.6787   71.3651   -4.7587 O.3     1  UNL1       -0.3308
     12 O          15.5048   69.2836   -3.1405 O.3     1  UNL1       -0.3794
     13 H          15.9404   67.5014   -5.1409 H       1  UNL1        0.2106
     14 H          15.2633   68.3623   -3.3050 H       1  UNL1        0.2105
     15 N          17.5825   70.5947   -7.0197 N.ar    1  UNL1       -0.2551
     16 C          16.8391   70.4734   -8.1332 C.ar    1  UNL1        0.3323
     17 N          17.4089   70.4932   -9.3527 N.ar    1  UNL1       -0.2743
     18 C          18.7449   70.6266   -9.4763 C.ar    1  UNL1        0.2626
     19 C          19.5401   70.7493   -8.3121 C.ar    1  UNL1        0.0795
     20 C          18.9421   70.7317   -7.1016 C.ar    1  UNL1        0.0869
     21 O          15.6329   70.3524   -8.0381 O.2     1  UNL1       -0.2464
     22 O          19.2617   70.6398  -10.5782 O.2     1  UNL1       -0.2670
     23 H          16.8568   70.4092  -10.1454 H       1  UNL1        0.1734
     24 O          20.3856   71.4073   -0.7619 O.3     1  UNL1       -0.2703
     25 P          21.6961   71.4599    0.1705 P.3     1  UNL1        0.2208
     26 O          22.9068   71.4530   -0.6797 O.2     1  UNL1       -0.5170
     27 O          21.7162   70.1761    1.1420 O.3     1  UNL1       -0.4371
     28 O          21.6713   72.8023    1.0580 O.3     1  UNL1       -0.2865
     29 C          20.6622   72.6226    2.0533 C.3     1  UNL1        0.2611
     30 C          19.7495   73.8500    2.0746 C.3     1  UNL1        0.1582
     31 C          20.5911   75.0953    2.3758 C.3     1  UNL1        0.1625
     32 C          21.3848   74.8506    3.6636 C.3     1  UNL1        0.1686
     33 C          22.1767   73.5491    3.5212 C.3     1  UNL1        0.1760
     34 O          19.7319   76.2241    2.5462 O.3     1  UNL1       -0.3801
     35 O          22.2853   75.9379    3.8838 O.3     1  UNL1       -0.3794
     36 O          21.2785   72.4569    3.3285 O.3     1  UNL1       -0.3263
     37 H          20.3015   76.9830    2.7331 H       1  UNL1        0.2105
     38 H          22.7642   75.7432    4.7019 H       1  UNL1        0.2105
     39 C          19.6254   74.8285   -0.1529 C.2     1  UNL1        0.2231
     40 C          18.9564   74.9833   -1.4948 C.3     1  UNL1        0.0946
     41 N          19.1003   74.0004    0.7706 N.am    1  UNL1       -0.2994
     42 O          20.6363   75.4500    0.0959 O.2     1  UNL1       -0.2751
     43 H          18.2912   73.5031    0.5719 H       1  UNL1        0.1496
     44 C          22.9985   73.3122    4.7899 C.3     1  UNL1        0.1693
     45 O          22.1237   72.9757    5.8687 O.3     1  UNL1       -0.3794
     46 H          22.6801   72.8353    6.6467 H       1  UNL1        0.2105
@<TRIPOS>BOND
     1    29    30    1
     2    29    28    1
     3    29    36    1
     4    30    31    1
     5    30    41    1
     6    31    32    1
     7    31    34    1
     8    32    33    1
     9    32    35    1
    10    33    44    1
    11    33    36    1
    12    44    45    1
    13    39    40    1
    14    39    41   am
    15    39    42    2
    16    41    43    1
    17    28    25    1
    18    34    37    1
    19    35    38    1
    20    45    46    1
    21    15    16   ar
    22    15    20   ar
    23    15     6    1
    24    16    17   ar
    25    16    21    2
    26    17    18   ar
    27    17    23    1
    28    18    19   ar
    29    18    22    2
    30    19    20   ar
    31     6     7    1
    32     6    11    1
    33     7     8    1
    34     7     9    1
    35     8    13    1
    36     9    10    1
    37     9    12    1
    38    10    11    1
    39    10     5    1
    40    12    14    1
    41     5     4    1
    42     4     1    1
    43     1     2    2
    44     1     3    1
    45     1    24    1
    46    24    25    1
    47    25    26    2
    48    25    27    1
@<TRIPOS>MOLECULE
UD1
 46 48 0 0 0
SMALL
GASTEIGER

@<TRIPOS>ATOM
      1 P          20.5386   72.1501   -3.0440 P.3     1  UNL1        0.2189
      2 O          19.9351   73.2558   -3.8199 O.2     1  UNL1       -0.5170
      3 O          21.9967   71.8116   -3.6371 O.3     1  UNL1       -0.4371
      4 O          19.6007   70.8456   -3.1513 O.3     1  UNL1       -0.3112
      5 C          18.3819   71.1553   -2.4738 C.3     1  UNL1        0.1811
      6 C          16.8834   70.5598   -5.6873 C.3     1  UNL1        0.2383
      7 C          17.0048   69.1534   -5.0491 C.3     1  UNL1        0.1895
      8 O          15.9558   68.2955   -5.4993 O.3     1  UNL1       -0.3779
      9 C          16.8527   69.4674   -3.5380 C.3     1  UNL1        0.1713
     10 C          17.2032   70.9640   -3.4294 C.3     1  UNL1        0.1764
     11 O          17.5623   71.4177   -4.7456 O.3     1  UNL1       -0.3308
     12 O          15.5100   69.2290   -3.1101 O.3     1  UNL1       -0.3794
     13 H          16.0887   67.4402   -5.0677 H       1  UNL1        0.2106
     14 H          15.3321   68.2907   -3.2582 H       1  UNL1        0.2105
     15 N          17.5468   70.5976   -6.9911 N.ar    1  UNL1       -0.2551
     16 C          16.8180   70.4697   -8.1135 C.ar    1  UNL1        0.3323
     17 N          17.4011   70.5046   -9.3264 N.ar    1  UNL1       -0.2743
     18 C          18.7360   70.6603   -9.4343 C.ar    1  UNL1        0.2626
     19 C          19.5160   70.7900   -8.2606 C.ar    1  UNL1        0.0795
     20 C          18.9048   70.7569   -7.0570 C.ar    1  UNL1        0.0869
     21 O          15.6129   70.3288   -8.0326 O.2     1  UNL1       -0.2464
     22 O          19.2648   70.6871  -10.5302 O.2     1  UNL1       -0.2670
     23 H          16.8594   70.4156  -10.1256 H       1  UNL1        0.1734
     24 O          20.6740   72.5881   -1.5017 O.3     1  UNL1       -0.2703
     25 P          21.6598   71.5263   -0.8017 P.3     1  UNL1        0.2208
     26 O          22.1762   70.5864   -1.8210 O.2     1  UNL1       -0.5170
     27 O          20.8534   70.7055    0.3244 O.3     1  UNL1       -0.4371
     28 O          22.8909   72.3052   -0.1175 O.3     1  UNL1       -0.2865
     29 C          22.4522   73.6434    0.1235 C.3     1  UNL1        0.2611
     30 C          23.6665   74.5726    0.1687 C.3     1  UNL1        0.1582
     31 C          24.6140   74.1055    1.2794 C.3     1  UNL1        0.1625
     32 C          23.8227   74.0025    2.5876 C.3     1  UNL1        0.1686
     33 C          22.5981   73.1137    2.3606 C.3     1  UNL1        0.1760
     34 O          25.6759   75.0493    1.4312 O.3     1  UNL1       -0.3801
     35 O          24.6494   73.4296    3.6024 O.3     1  UNL1       -0.3794
     36 O          21.7563   73.6972    1.3670 O.3     1  UNL1       -0.3263
     37 H          26.2464   74.7166    2.1377 H       1  UNL1        0.2105
     38 H          24.1131   73.3824    4.4065 H       1  UNL1        0.2105
     39 C          23.7781   75.0468   -2.2181 C.2     1  UNL1        0.2231
     40 C          24.4947   75.0045   -3.5436 C.3     1  UNL1        0.0946
     41 N          24.3625   74.5322   -1.1191 N.am    1  UNL1       -0.2994
     42 O          22.6747   75.5436   -2.1411 O.2     1  UNL1       -0.2751
     43 H          25.2454   74.1344   -1.1805 H       1  UNL1        0.1496
     44 C          21.8182   72.9780    3.6700 C.3     1  UNL1        0.1693
     45 O          20.6046   72.2626    3.4302 O.3     1  UNL1       -0.3794
     46 H          20.1447   72.1996    4.2782 H       1  UNL1        0.2105
@<TRIPOS>BOND
     1    29    30    1
     2    29    28    1
     3    29    36    1
     4    30    31    1
     5    30    41    1
     6    31    32    1
     7    31    34    1
     8    32    33    1
     9    32    35    1
    10    33    44    1
    11    33    36    1
    12    44    45    1
    13    39    40    1
    14    39    41   am
    15    39    42    2
    16    41    43    1
    17    28    25    1
    18    34    37    1
    19    35    38    1
    20    45    46    1
    21    15    16   ar
    22    15    20   ar
    23    15     6    1
    24    16    17   ar
    25    16    21    2
    26    17    18   ar
    27    17    23    1
    28    18    19   ar
    29    18    22    2
    30    19    20   ar
    31     6     7    1
    32     6    11    1
    33     7     8    1
    34     7     9    1
    35     8    13    1
    36     9    10    1
    37     9    12    1
    38    10    11    1
    39    10     5    1
    40    12    14    1
    41     5     4    1
    42     4     1    1
    43     1     2    2
    44     1     3    1
    45     1    24    1
    46    24    25    1
    47    25    26    2
    48    25    27    1
@<TRIPOS>MOLECULE
UD1
 46 48 0 0 0
SMALL
GASTEIGER

@<TRIPOS>ATOM
      1 P          15.6539   70.6155   -2.4934 P.3     1  UNL1        0.2189
      2 O          15.2760   71.6814   -3.4471 O.2     1  UNL1       -0.5170
      3 O          15.8743   69.2345   -3.2915 O.3     1  UNL1       -0.4371
      4 O          14.4792   70.4256   -1.4085 O.3     1  UNL1       -0.3112
      5 C          14.9378   69.4534   -0.4679 C.3     1  UNL1        0.1811
      6 C          12.8318   67.6069    1.7867 C.3     1  UNL1        0.2383
      7 C          12.0722   68.9357    1.5463 C.3     1  UNL1        0.1895
      8 O          10.6603   68.7402    1.6330 O.3     1  UNL1       -0.3779
      9 C          12.4934   69.2940    0.0974 C.3     1  UNL1        0.1713
     10 C          13.7945   68.4981   -0.1220 C.3     1  UNL1        0.1764
     11 O          14.0880   67.8081    1.1048 O.3     1  UNL1       -0.3308
     12 O          11.4869   68.8858   -0.8316 O.3     1  UNL1       -0.3794
     13 H          10.2481   69.6009    1.4752 H       1  UNL1        0.2106
     14 H          10.6837   69.3734   -0.6053 H       1  UNL1        0.2105
     15 N          13.0503   67.3849    3.2165 N.ar    1  UNL1       -0.2551
     16 C          12.9851   66.1380    3.7147 C.ar    1  UNL1        0.3323
     17 N          13.1858   65.9038    5.0251 N.ar    1  UNL1       -0.2743
     18 C          13.4480   66.9250    5.8655 C.ar    1  UNL1        0.2626
     19 C          13.5137   68.2434    5.3553 C.ar    1  UNL1        0.0795
     20 C          13.3136   68.4493    4.0359 C.ar    1  UNL1        0.0869
     21 O          12.7496   65.2065    2.9694 O.2     1  UNL1       -0.2464
     22 O          13.6249   66.7149    7.0513 O.2     1  UNL1       -0.2670
     23 H          13.1397   64.9974    5.3665 H       1  UNL1        0.1734
     24 O          17.0165   71.0256   -1.7423 O.3     1  UNL1       -0.2703
     25 P          18.2284   70.5884   -2.7064 P.3     1  UNL1        0.2208
     26 O          18.1928   69.1234   -2.9099 O.2     1  UNL1       -0.5170
     27 O          19.6295   71.0015   -2.0293 O.3     1  UNL1       -0.4371
     28 O          18.0808   71.3311   -4.1266 O.3     1  UNL1       -0.2865
     29 C          18.8751   70.5990   -5.0617 C.3     1  UNL1        0.2611
     30 C          19.8941   71.5410   -5.7053 C.3     1  UNL1        0.1582
     31 C          19.1488   72.6828   -6.4056 C.3     1  UNL1        0.1625
     32 C          18.1202   72.0792   -7.3678 C.3     1  UNL1        0.1686
     33 C          17.2329   71.0988   -6.5979 C.3     1  UNL1        0.1760
     34 O          20.0789   73.4852   -7.1353 O.3     1  UNL1       -0.3801
     35 O          17.3147   73.1214   -7.9215 O.3     1  UNL1       -0.3794
     36 O          18.0307   70.0416   -6.0665 O.3     1  UNL1       -0.3263
     37 H          19.5686   74.1893   -7.5585 H       1  UNL1        0.2105
     38 H          16.6820   72.6984   -8.5192 H       1  UNL1        0.2105
     39 C          22.0791   72.2947   -4.9359 C.2     1  UNL1        0.2231
     40 C          22.9847   72.8600   -3.8717 C.3     1  UNL1        0.0946
     41 N          20.7741   72.0906   -4.6720 N.am    1  UNL1       -0.2994
     42 O          22.5254   72.0228   -6.0300 O.2     1  UNL1       -0.2751
     43 H          20.4168   72.3078   -3.7964 H       1  UNL1        0.1496
     44 C          16.1809   70.5146   -7.5431 C.3     1  UNL1        0.1693
     45 O          16.6120   70.6783   -8.8957 O.3     1  UNL1       -0.3794
     46 H          15.9226   70.2983   -9.4569 H       1  UNL1        0.2105
@<TRIPOS>BOND
     1    29    30    1
     2    29    28    1
     3    29    36    1
     4    30    31    1
     5    30    41    1
     6    31    32    1
     7    31    34    1
     8    32    33    1
     9    32    35    1
    10    33    44    1
    11    33    36    1
    12    44    45    1
    13    39    40    1
    14    39    41   am
    15    39    42    2
    16    41    43    1
    17    28    25    1
    18    34    37    1
    19    35    38    1
    20    45    46    1
    21    15    16   ar
    22    15    20   ar
    23    15     6    1
    24    16    17   ar
    25    16    21    2
    26    17    18   ar
    27    17    23    1
    28    18    19   ar
    29    18    22    2
    30    19    20   ar
    31     6     7    1
    32     6    11    1
    33     7     8    1
    34     7     9    1
    35     8    13    1
    36     9    10    1
    37     9    12    1
    38    10    11    1
    39    10     5    1
    40    12    14    1
    41     5     4    1
    42     4     1    1
    43     1     2    2
    44     1     3    1
    45     1    24    1
    46    24    25    1
    47    25    26    2
    48    25    27    1
@<TRIPOS>MOLECULE
UD1
 46 48 0 0 0
SMALL
GASTEIGER

@<TRIPOS>ATOM
      1 P          16.3075   69.6223   -2.8367 P.3     1  UNL1        0.2189
      2 O          16.1022   69.1488   -4.2232 O.2     1  UNL1       -0.5170
      3 O          16.9834   68.4502   -1.9638 O.3     1  UNL1       -0.4371
      4 O          14.8874   70.0206   -2.1904 O.3     1  UNL1       -0.3112
      5 C          14.7730   69.2965   -0.9645 C.3     1  UNL1        0.1811
      6 C          12.0468   68.1487    1.0794 C.3     1  UNL1        0.2383
      7 C          12.3812   69.5564    1.6332 C.3     1  UNL1        0.1895
      8 O          11.2140   70.1894    2.1589 O.3     1  UNL1       -0.3779
      9 C          12.8869   70.2932    0.3657 C.3     1  UNL1        0.1713
     10 C          13.2968   69.1560   -0.5899 C.3     1  UNL1        0.1764
     11 O          13.0843   67.9145    0.1036 O.3     1  UNL1       -0.3308
     12 O          11.8410   71.0825   -0.2051 O.3     1  UNL1       -0.3794
     13 H          11.4892   71.0570    2.4862 H       1  UNL1        0.2106
     14 H          11.5884   71.7353    0.4614 H       1  UNL1        0.2105
     15 N          12.1027   67.1453    2.1432 N.ar    1  UNL1       -0.2551
     16 C          13.2924   66.6626    2.5419 C.ar    1  UNL1        0.3323
     17 N          13.3742   65.7421    3.5207 N.ar    1  UNL1       -0.2743
     18 C          12.2551   65.2800    4.1141 C.ar    1  UNL1        0.2626
     19 C          10.9957   65.7752    3.7000 C.ar    1  UNL1        0.0795
     20 C          10.9429   66.7022    2.7196 C.ar    1  UNL1        0.0869
     21 O          14.3107   67.0696    2.0163 O.2     1  UNL1       -0.2464
     22 O          12.3275   64.4442    4.9959 O.2     1  UNL1       -0.2670
     23 H          14.2410   65.4084    3.7990 H       1  UNL1        0.1734
     24 O          17.2723   70.9099   -2.8466 O.3     1  UNL1       -0.2703
     25 P          18.7659   70.3696   -3.1044 P.3     1  UNL1        0.2208
     26 O          18.7074   68.9807   -3.6108 O.2     1  UNL1       -0.5170
     27 O          19.5949   70.4024   -1.7246 O.3     1  UNL1       -0.4371
     28 O          19.4968   71.3062   -4.1902 O.3     1  UNL1       -0.2865
     29 C          20.6269   70.5773   -4.6727 C.3     1  UNL1        0.2611
     30 C          21.8853   71.4323   -4.5125 C.3     1  UNL1        0.1582
     31 C          21.7079   72.7371   -5.2971 C.3     1  UNL1        0.1625
     32 C          21.3331   72.3928   -6.7425 C.3     1  UNL1        0.1686
     33 C          20.1143   71.4677   -6.7344 C.3     1  UNL1        0.1760
     34 O          22.9302   73.4767   -5.2790 O.3     1  UNL1       -0.3801
     35 O          21.0199   73.5920   -7.4536 O.3     1  UNL1       -0.3794
     36 O          20.4323   70.2573   -6.0486 O.3     1  UNL1       -0.3263
     37 H          22.7737   74.2875   -5.7824 H       1  UNL1        0.2105
     38 H          20.7894   73.3298   -8.3562 H       1  UNL1        0.2105
     39 C          23.2533   71.4019   -2.4971 C.2     1  UNL1        0.2231
     40 C          23.4673   71.7147   -1.0381 C.3     1  UNL1        0.0946
     41 N          22.0938   71.7365   -3.0954 N.am    1  UNL1       -0.2994
     42 O          24.1249   70.8481   -3.1326 O.2     1  UNL1       -0.2751
     43 H          21.3960   72.1794   -2.5870 H       1  UNL1        0.1496
     44 C          19.7119   71.1439   -8.1747 C.3     1  UNL1        0.1693
     45 O          19.9848   69.7681   -8.4481 O.3     1  UNL1       -0.3794
     46 H          19.7178   69.6063   -9.3631 H       1  UNL1        0.2105
@<TRIPOS>BOND
     1    29    30    1
     2    29    28    1
     3    29    36    1
     4    30    31    1
     5    30    41    1
     6    31    32    1
     7    31    34    1
     8    32    33    1
     9    32    35    1
    10    33    44    1
    11    33    36    1
    12    44    45    1
    13    39    40    1
    14    39    41   am
    15    39    42    2
    16    41    43    1
    17    28    25    1
    18    34    37    1
    19    35    38    1
    20    45    46    1
    21    15    16   ar
    22    15    20   ar
    23    15     6    1
    24    16    17   ar
    25    16    21    2
    26    17    18   ar
    27    17    23    1
    28    18    19   ar
    29    18    22    2
    30    19    20   ar
    31     6     7    1
    32     6    11    1
    33     7     8    1
    34     7     9    1
    35     8    13    1
    36     9    10    1
    37     9    12    1
    38    10    11    1
    39    10     5    1
    40    12    14    1
    41     5     4    1
    42     4     1    1
    43     1     2    2
    44     1     3    1
    45     1    24    1
    46    24    25    1
    47    25    26    2
    48    25    27    1
@<TRIPOS>MOLECULE
UD1
 46 48 0 0 0
SMALL
GASTEIGER

@<TRIPOS>ATOM
      1 P          22.9240   72.1900   -3.4641 P.3     1  UNL1        0.2189
      2 O          24.2905   72.4695   -3.9575 O.2     1  UNL1       -0.5170
      3 O          22.7452   70.6045   -3.2480 O.3     1  UNL1       -0.4371
      4 O          21.8478   72.7082   -4.5439 O.3     1  UNL1       -0.3112
      5 C          22.3650   72.3798   -5.8342 C.3     1  UNL1        0.1811
      6 C          19.2416   70.6415   -6.2211 C.3     1  UNL1        0.2383
      7 C          19.0338   71.9836   -6.9667 C.3     1  UNL1        0.1895
      8 O          18.1261   71.8269   -8.0579 O.3     1  UNL1       -0.3779
      9 C          20.4642   72.2972   -7.4774 C.3     1  UNL1        0.1713
     10 C          21.3802   71.4629   -6.5612 C.3     1  UNL1        0.1764
     11 O          20.5386   70.7941   -5.6063 O.3     1  UNL1       -0.3308
     12 O          20.6082   71.8938   -8.8410 O.3     1  UNL1       -0.3794
     13 H          18.0402   72.6941   -8.4776 H       1  UNL1        0.2106
     14 H          19.9693   72.4072   -9.3531 H       1  UNL1        0.2105
     15 N          18.2078   70.4470   -5.2038 N.ar    1  UNL1       -0.2551
     16 C          17.0801   69.7859   -5.5177 C.ar    1  UNL1        0.3323
     17 N          16.1142   69.5889   -4.6010 N.ar    1  UNL1       -0.2743
     18 C          16.2602   70.0631   -3.3474 C.ar    1  UNL1        0.2626
     19 C          17.4398   70.7661   -3.0050 C.ar    1  UNL1        0.0795
     20 C          18.3950   70.9449   -3.9425 C.ar    1  UNL1        0.0869
     21 O          16.9338   69.3521   -6.6442 O.2     1  UNL1       -0.2464
     22 O          15.3854   69.8897   -2.5191 O.2     1  UNL1       -0.2670
     23 H          15.3093   69.1056   -4.8435 H       1  UNL1        0.1734
     24 O          22.6917   72.9526   -2.0665 O.3     1  UNL1       -0.2703
     25 P          23.0180   71.8940   -0.8994 P.3     1  UNL1        0.2208
     26 O          24.1249   71.0116   -1.3294 O.2     1  UNL1       -0.5170
     27 O          21.7097   71.0050   -0.5991 O.3     1  UNL1       -0.4371
     28 O          23.4479   72.6818    0.4367 O.3     1  UNL1       -0.2865
     29 C          22.6696   73.8792    0.4804 C.3     1  UNL1        0.2611
     30 C          23.6053   75.0878    0.5410 C.3     1  UNL1        0.1582
     31 C          24.4922   74.9731    1.7859 C.3     1  UNL1        0.1625
     32 C          23.5933   74.7823    3.0122 C.3     1  UNL1        0.1686
     33 C          22.6604   73.5946    2.7663 C.3     1  UNL1        0.1760
     34 O          25.2645   76.1659    1.9352 O.3     1  UNL1       -0.3801
     35 O          24.4017   74.5268    4.1623 O.3     1  UNL1       -0.3794
     36 O          21.8323   73.8583    1.6344 O.3     1  UNL1       -0.3263
     37 H          25.8063   76.0506    2.7279 H       1  UNL1        0.2105
     38 H          23.7973   74.4123    4.9093 H       1  UNL1        0.2105
     39 C          24.6580   76.2809   -1.3036 C.2     1  UNL1        0.2231
     40 C          25.5219   76.3114   -2.5385 C.3     1  UNL1        0.0946
     41 N          24.4449   75.1180   -0.6584 N.am    1  UNL1       -0.2994
     42 O          24.1538   77.3036   -0.8910 O.2     1  UNL1       -0.2751
     43 H          24.8481   74.2994   -0.9885 H       1  UNL1        0.1496
     44 C          21.7804   73.3752    3.9986 C.3     1  UNL1        0.1693
     45 O          22.3793   72.3900    4.8428 O.3     1  UNL1       -0.3794
     46 H          21.7946   72.2819    5.6051 H       1  UNL1        0.2105
@<TRIPOS>BOND
     1    29    30    1
     2    29    28    1
     3    29    36    1
     4    30    31    1
     5    30    41    1
     6    31    32    1
     7    31    34    1
     8    32    33    1
     9    32    35    1
    10    33    44    1
    11    33    36    1
    12    44    45    1
    13    39    40    1
    14    39    41   am
    15    39    42    2
    16    41    43    1
    17    28    25    1
    18    34    37    1
    19    35    38    1
    20    45    46    1
    21    15    16   ar
    22    15    20   ar
    23    15     6    1
    24    16    17   ar
    25    16    21    2
    26    17    18   ar
    27    17    23    1
    28    18    19   ar
    29    18    22    2
    30    19    20   ar
    31     6     7    1
    32     6    11    1
    33     7     8    1
    34     7     9    1
    35     8    13    1
    36     9    10    1
    37     9    12    1
    38    10    11    1
    39    10     5    1
    40    12    14    1
    41     5     4    1
    42     4     1    1
    43     1     2    2
    44     1     3    1
    45     1    24    1
    46    24    25    1
    47    25    26    2
    48    25    27    1
@<TRIPOS>MOLECULE
UD1
 46 48 0 0 0
SMALL
GASTEIGER

@<TRIPOS>ATOM
      1 P          23.4286   71.7745   -3.2565 P.3     1  UNL1        0.2189
      2 O          24.4166   70.7121   -2.9666 O.2     1  UNL1       -0.5170
      3 O          24.0462   72.8035   -4.3299 O.3     1  UNL1       -0.4371
      4 O          23.0768   72.5645   -1.8982 O.3     1  UNL1       -0.3112
      5 C          23.4350   71.7051   -0.8149 C.3     1  UNL1        0.1811
      6 C          23.2285   73.2569    2.4218 C.3     1  UNL1        0.2383
      7 C          22.8499   74.3824    1.4268 C.3     1  UNL1        0.1895
      8 O          21.9294   75.2997    2.0189 O.3     1  UNL1       -0.3779
      9 C          22.1774   73.5881    0.2771 C.3     1  UNL1        0.1713
     10 C          22.7077   72.1521    0.4541 C.3     1  UNL1        0.1764
     11 O          23.6227   72.1657    1.5631 O.3     1  UNL1       -0.3308
     12 O          20.7548   73.6229    0.4103 O.3     1  UNL1       -0.3794
     13 H          21.7356   75.9723    1.3513 H       1  UNL1        0.2106
     14 H          20.4913   74.5509    0.3507 H       1  UNL1        0.2105
     15 N          24.3432   73.6710    3.2748 N.ar    1  UNL1       -0.2551
     16 C          24.0944   74.2194    4.4767 C.ar    1  UNL1        0.3323
     17 N          25.1001   74.6059    5.2838 N.ar    1  UNL1       -0.2743
     18 C          26.3815   74.4561    4.8921 C.ar    1  UNL1        0.2626
     19 C          26.6576   73.8857    3.6267 C.ar    1  UNL1        0.0795
     20 C          25.6299   73.5018    2.8394 C.ar    1  UNL1        0.0869
     21 O          22.9439   74.3610    4.8442 O.2     1  UNL1       -0.2464
     22 O          27.2915   74.8096    5.6190 O.2     1  UNL1       -0.2670
     23 H          24.9024   74.9953    6.1496 H       1  UNL1        0.1734
     24 O          22.0893   71.1132   -3.8546 O.3     1  UNL1       -0.2703
     25 P          20.9352   72.2303   -3.7561 P.3     1  UNL1        0.2208
     26 O          21.5344   73.5737   -3.9143 O.2     1  UNL1       -0.5170
     27 O          20.2128   72.1314   -2.3206 O.3     1  UNL1       -0.4371
     28 O          19.8499   71.9865   -4.9193 O.3     1  UNL1       -0.2865
     29 C          20.0598   70.6616   -5.4110 C.3     1  UNL1        0.2611
     30 C          20.3638   70.7211   -6.9090 C.3     1  UNL1        0.1582
     31 C          19.1882   71.3870   -7.6330 C.3     1  UNL1        0.1625
     32 C          17.8995   70.6477   -7.2581 C.3     1  UNL1        0.1686
     33 C          17.7799   70.5964   -5.7335 C.3     1  UNL1        0.1760
     34 O          19.3924   71.3143   -9.0452 O.3     1  UNL1       -0.3801
     35 O          16.7752   71.3400   -7.8041 O.3     1  UNL1       -0.3794
     36 O          18.8874   69.8816   -5.1868 O.3     1  UNL1       -0.3263
     37 H          18.6317   71.7441   -9.4600 H       1  UNL1        0.2105
     38 H          15.9870   70.8424   -7.5441 H       1  UNL1        0.2105
     39 C          21.5058   72.8341   -7.3160 C.2     1  UNL1        0.2231
     40 C          22.7606   73.6375   -7.5449 C.3     1  UNL1        0.0946
     41 N          21.5825   71.5021   -7.1309 N.am    1  UNL1       -0.2994
     42 O          20.4267   73.3867   -7.2990 O.2     1  UNL1       -0.2751
     43 H          22.4460   71.0595   -7.1447 H       1  UNL1        0.1496
     44 C          16.4793   69.8882   -5.3488 C.3     1  UNL1        0.1693
     45 O          15.9479   70.4791   -4.1611 O.3     1  UNL1       -0.3794
     46 H          15.1314   70.0048   -3.9537 H       1  UNL1        0.2105
@<TRIPOS>BOND
     1    29    30    1
     2    29    28    1
     3    29    36    1
     4    30    31    1
     5    30    41    1
     6    31    32    1
     7    31    34    1
     8    32    33    1
     9    32    35    1
    10    33    44    1
    11    33    36    1
    12    44    45    1
    13    39    40    1
    14    39    41   am
    15    39    42    2
    16    41    43    1
    17    28    25    1
    18    34    37    1
    19    35    38    1
    20    45    46    1
    21    15    16   ar
    22    15    20   ar
    23    15     6    1
    24    16    17   ar
    25    16    21    2
    26    17    18   ar
    27    17    23    1
    28    18    19   ar
    29    18    22    2
    30    19    20   ar
    31     6     7    1
    32     6    11    1
    33     7     8    1
    34     7     9    1
    35     8    13    1
    36     9    10    1
    37     9    12    1
    38    10    11    1
    39    10     5    1
    40    12    14    1
    41     5     4    1
    42     4     1    1
    43     1     2    2
    44     1     3    1
    45     1    24    1
    46    24    25    1
    47    25    26    2
    48    25    27    1
@<TRIPOS>MOLECULE
UD1
 46 48 0 0 0
SMALL
GASTEIGER

@<TRIPOS>ATOM
      1 P          20.7221   71.1460   -1.0506 P.3     1  UNL1        0.2189
      2 O          21.0956   70.5565    0.2540 O.2     1  UNL1       -0.5170
      3 O          20.8377   72.7499   -0.9676 O.3     1  UNL1       -0.4371
      4 O          19.2070   70.7361   -1.4101 O.3     1  UNL1       -0.3112
      5 C          19.2521   70.0337   -2.6530 C.3     1  UNL1        0.1811
      6 C          17.4013   70.4299   -5.7099 C.3     1  UNL1        0.2383
      7 C          17.1004   68.9785   -5.2593 C.3     1  UNL1        0.1895
      8 O          15.7962   68.5736   -5.6768 O.3     1  UNL1       -0.3779
      9 C          17.1758   69.0948   -3.7147 C.3     1  UNL1        0.1713
     10 C          18.0072   70.3699   -3.4754 C.3     1  UNL1        0.1764
     11 O          18.3945   70.8782   -4.7633 O.3     1  UNL1       -0.3308
     12 O          15.8662   69.2320   -3.1588 O.3     1  UNL1       -0.3794
     13 H          15.6721   67.6658   -5.3670 H       1  UNL1        0.2106
     14 H          15.3782   68.4313   -3.3928 H       1  UNL1        0.2105
     15 N          17.9388   70.4504   -7.0708 N.ar    1  UNL1       -0.2551
     16 C          17.0980   70.4346   -8.1196 C.ar    1  UNL1        0.3323
     17 N          17.5643   70.4568   -9.3823 N.ar    1  UNL1       -0.2743
     18 C          18.8919   70.4861   -9.6159 C.ar    1  UNL1        0.2626
     19 C          19.7885   70.4971   -8.5210 C.ar    1  UNL1        0.0795
     20 C          19.2936   70.4797   -7.2648 C.ar    1  UNL1        0.0869
     21 O          15.8979   70.4082   -7.9251 O.2     1  UNL1       -0.2464
     22 O          19.3147   70.5014  -10.7571 O.2     1  UNL1       -0.2670
     23 H          16.9433   70.4497  -10.1269 H       1  UNL1        0.1734
     24 O          21.7125   70.5940   -2.1922 O.3     1  UNL1       -0.2703
     25 P          23.0587   71.4710   -2.1037 P.3     1  UNL1        0.2208
     26 O          24.1485   70.7757   -2.8233 O.2     1  UNL1       -0.5170
     27 O          23.4737   71.6641   -0.5601 O.3     1  UNL1       -0.4371
     28 O          22.8069   72.9122   -2.7744 O.3     1  UNL1       -0.2865
     29 C          24.0051   73.2607   -3.4701 C.3     1  UNL1        0.2611
     30 C          24.3242   74.7355   -3.2189 C.3     1  UNL1        0.1582
     31 C          23.1489   75.5922   -3.7030 C.3     1  UNL1        0.1625
     32 C          22.8458   75.2297   -5.1607 C.3     1  UNL1        0.1686
     33 C          22.6351   73.7177   -5.2648 C.3     1  UNL1        0.1760
     34 O          23.4951   76.9754   -3.6120 O.3     1  UNL1       -0.3801
     35 O          21.6628   75.9089   -5.5860 O.3     1  UNL1       -0.3794
     36 O          23.8244   73.0367   -4.8668 O.3     1  UNL1       -0.3263
     37 H          22.7294   77.4762   -3.9252 H       1  UNL1        0.2105
     38 H          21.5086   75.6524   -6.5063 H       1  UNL1        0.2105
     39 C          23.5167   75.3828   -1.0137 C.2     1  UNL1        0.2231
     40 C          23.7328   75.6084    0.4610 C.3     1  UNL1        0.0946
     41 N          24.5335   74.9543   -1.7862 N.am    1  UNL1       -0.2994
     42 O          22.4274   75.5877   -1.5051 O.2     1  UNL1       -0.2751
     43 H          25.4054   74.7905   -1.3932 H       1  UNL1        0.1496
     44 C          22.2997   73.3493   -6.7115 C.3     1  UNL1        0.1693
     45 O          22.9579   72.1290   -7.0576 O.3     1  UNL1       -0.3794
     46 H          22.7210   71.9335   -7.9742 H       1  UNL1        0.2105
@<TRIPOS>BOND
     1    29    30    1
     2    29    28    1
     3    29    36    1
     4    30    31    1
     5    30    41    1
     6    31    32    1
     7    31    34    1
     8    32    33    1
     9    32    35    1
    10    33    44    1
    11    33    36    1
    12    44    45    1
    13    39    40    1
    14    39    41   am
    15    39    42    2
    16    41    43    1
    17    28    25    1
    18    34    37    1
    19    35    38    1
    20    45    46    1
    21    15    16   ar
    22    15    20   ar
    23    15     6    1
    24    16    17   ar
    25    16    21    2
    26    17    18   ar
    27    17    23    1
    28    18    19   ar
    29    18    22    2
    30    19    20   ar
    31     6     7    1
    32     6    11    1
    33     7     8    1
    34     7     9    1
    35     8    13    1
    36     9    10    1
    37     9    12    1
    38    10    11    1
    39    10     5    1
    40    12    14    1
    41     5     4    1
    42     4     1    1
    43     1     2    2
    44     1     3    1
    45     1    24    1
    46    24    25    1
    47    25    26    2
    48    25    27    1
@<TRIPOS>MOLECULE
UD1
 46 48 0 0 0
SMALL
GASTEIGER

@<TRIPOS>ATOM
      1 P          19.6623   71.7189   -1.3869 P.3     1  UNL1        0.2189
      2 O          19.3863   72.8408   -0.4629 O.2     1  UNL1       -0.5170
      3 O          20.4620   72.2668   -2.6726 O.3     1  UNL1       -0.4371
      4 O          18.2714   71.0609   -1.8617 O.3     1  UNL1       -0.3112
      5 C          17.6209   72.0231   -2.6933 C.3     1  UNL1        0.1811
      6 C          16.7066   70.4757   -5.8073 C.3     1  UNL1        0.2383
      7 C          17.2042   69.3047   -4.9233 C.3     1  UNL1        0.1895
      8 O          16.5293   68.0909   -5.2555 O.3     1  UNL1       -0.3779
      9 C          16.8150   69.7827   -3.5002 C.3     1  UNL1        0.1713
     10 C          16.6617   71.3090   -3.6468 C.3     1  UNL1        0.1764
     11 O          16.9846   71.6445   -5.0071 O.3     1  UNL1       -0.3308
     12 O          15.5818   69.1865   -3.0920 O.3     1  UNL1       -0.3794
     13 H          16.8835   67.4049   -4.6728 H       1  UNL1        0.2106
     14 H          15.7251   68.2308   -3.0772 H       1  UNL1        0.2105
     15 N          17.4471   70.5255   -7.0685 N.ar    1  UNL1       -0.2551
     16 C          16.7771   70.5710   -8.2331 C.ar    1  UNL1        0.3323
     17 N          17.4321   70.6213   -9.4081 N.ar    1  UNL1       -0.2743
     18 C          18.7802   70.6176   -9.4352 C.ar    1  UNL1        0.2626
     19 C          19.4980   70.5640   -8.2168 C.ar    1  UNL1        0.0795
     20 C          18.8158   70.5195   -7.0523 C.ar    1  UNL1        0.0869
     21 O          15.5611   70.5750   -8.2251 O.2     1  UNL1       -0.2464
     22 O          19.3734   70.6583  -10.4972 O.2     1  UNL1       -0.2670
     23 H          16.9328   70.6585  -10.2384 H       1  UNL1        0.1734
     24 O          20.5511   70.6093   -0.6336 O.3     1  UNL1       -0.2703
     25 P          21.4683   71.3929    0.4314 P.3     1  UNL1        0.2208
     26 O          22.5723   70.5128    0.8733 O.2     1  UNL1       -0.5170
     27 O          20.5753   71.8125    1.7037 O.3     1  UNL1       -0.4371
     28 O          22.0779   72.7155   -0.2540 O.3     1  UNL1       -0.2865
     29 C          23.4883   72.5141   -0.3615 C.3     1  UNL1        0.2611
     30 C          24.2172   73.6626    0.3382 C.3     1  UNL1        0.1582
     31 C          23.8084   74.9876   -0.3152 C.3     1  UNL1        0.1625
     32 C          24.0508   74.8850   -1.8248 C.3     1  UNL1        0.1686
     33 C          23.3318   73.6457   -2.3619 C.3     1  UNL1        0.1760
     34 O          24.5928   76.0513    0.2278 O.3     1  UNL1       -0.3801
     35 O          23.5409   76.0528   -2.4712 O.3     1  UNL1       -0.3794
     36 O          23.8578   72.4749   -1.7382 O.3     1  UNL1       -0.3263
     37 H          24.3031   76.8636   -0.2099 H       1  UNL1        0.2105
     38 H          23.7131   75.9464   -3.4175 H       1  UNL1        0.2105
     39 C          24.7948   73.9130    2.6914 C.2     1  UNL1        0.2231
     40 C          24.4197   73.9326    4.1513 C.3     1  UNL1        0.0946
     41 N          23.8532   73.6822    1.7564 N.am    1  UNL1       -0.2994
     42 O          25.9448   74.1046    2.3584 O.2     1  UNL1       -0.2751
     43 H          22.9328   73.5286    2.0227 H       1  UNL1        0.1496
     44 C          23.5407   73.5519   -3.8747 C.3     1  UNL1        0.1693
     45 O          24.3176   72.3914   -4.1777 O.3     1  UNL1       -0.3794
     46 H          24.4260   72.3702   -5.1381 H       1  UNL1        0.2105
@<TRIPOS>BOND
     1    29    30    1
     2    29    28    1
     3    29    36    1
     4    30    31    1
     5    30    41    1
     6    31    32    1
     7    31    34    1
     8    32    33    1
     9    32    35    1
    10    33    44    1
    11    33    36    1
    12    44    45    1
    13    39    40    1
    14    39    41   am
    15    39    42    2
    16    41    43    1
    17    28    25    1
    18    34    37    1
    19    35    38    1
    20    45    46    1
    21    15    16   ar
    22    15    20   ar
    23    15     6    1
    24    16    17   ar
    25    16    21    2
    26    17    18   ar
    27    17    23    1
    28    18    19   ar
    29    18    22    2
    30    19    20   ar
    31     6     7    1
    32     6    11    1
    33     7     8    1
    34     7     9    1
    35     8    13    1
    36     9    10    1
    37     9    12    1
    38    10    11    1
    39    10     5    1
    40    12    14    1
    41     5     4    1
    42     4     1    1
    43     1     2    2
    44     1     3    1
    45     1    24    1
    46    24    25    1
    47    25    26    2
    48    25    27    1
@<TRIPOS>MOLECULE
UD1
 46 48 0 0 0
SMALL
GASTEIGER

@<TRIPOS>ATOM
      1 P          22.1557   73.1900   -1.0261 P.3     1  UNL1        0.2189
      2 O          20.6845   73.1747   -0.8712 O.2     1  UNL1       -0.5170
      3 O          22.6950   74.7003   -0.8825 O.3     1  UNL1       -0.4371
      4 O          22.5477   72.6172   -2.4791 O.3     1  UNL1       -0.3112
      5 C          21.3403   72.1415   -3.0760 C.3     1  UNL1        0.1811
      6 C          20.4434   71.2756   -6.4484 C.3     1  UNL1        0.2383
      7 C          20.8761   72.7609   -6.5310 C.3     1  UNL1        0.1895
      8 O          21.4480   73.0565   -7.8057 O.3     1  UNL1       -0.3779
      9 C          21.9446   72.8516   -5.4106 C.3     1  UNL1        0.1713
     10 C          21.6305   71.6521   -4.4957 C.3     1  UNL1        0.1764
     11 O          20.4703   70.9944   -5.0328 O.3     1  UNL1       -0.3308
     12 O          23.2584   72.7380   -5.9619 O.3     1  UNL1       -0.3794
     13 H          21.6945   73.9917   -7.7920 H       1  UNL1        0.2106
     14 H          23.3718   73.4815   -6.5688 H       1  UNL1        0.2105
     15 N          19.0935   71.0972   -6.9845 N.ar    1  UNL1       -0.2551
     16 C          18.9003   70.3040   -8.0526 C.ar    1  UNL1        0.3323
     17 N          17.6691   70.1186   -8.5646 N.ar    1  UNL1       -0.2743
     18 C          16.6045   70.7374   -8.0153 C.ar    1  UNL1        0.2626
     19 C          16.7946   71.5800   -6.8942 C.ar    1  UNL1        0.0795
     20 C          18.0395   71.7441   -6.3977 C.ar    1  UNL1        0.0869
     21 O          19.8504   69.7390   -8.5591 O.2     1  UNL1       -0.2464
     22 O          15.4916   70.5742   -8.4803 O.2     1  UNL1       -0.2670
     23 H          17.5474   69.5392   -9.3325 H       1  UNL1        0.1734
     24 O          22.8248   72.2697    0.1116 O.3     1  UNL1       -0.2703
     25 P          21.6218   71.7012    1.0166 P.3     1  UNL1        0.2208
     26 O          21.6427   70.2221    0.9920 O.2     1  UNL1       -0.5170
     27 O          20.2161   72.2271    0.4339 O.3     1  UNL1       -0.4371
     28 O          21.7990   72.2152    2.5315 O.3     1  UNL1       -0.2865
     29 C          22.1188   73.6059    2.4626 C.3     1  UNL1        0.2611
     30 C          23.1664   73.9366    3.5271 C.3     1  UNL1        0.1582
     31 C          22.6078   73.5776    4.9087 C.3     1  UNL1        0.1625
     32 C          21.2549   74.2747    5.0866 C.3     1  UNL1        0.1686
     33 C          20.3503   73.9160    3.9057 C.3     1  UNL1        0.1760
     34 O          23.5143   74.0186    5.9211 O.3     1  UNL1       -0.3801
     35 O          20.6488   73.8382    6.3046 O.3     1  UNL1       -0.3794
     36 O          20.9398   74.3751    2.6899 O.3     1  UNL1       -0.3263
     37 H          23.1246   73.7728    6.7714 H       1  UNL1        0.2105
     38 H          19.8013   74.2998    6.3765 H       1  UNL1        0.2105
     39 C          25.5920   73.7395    3.4179 C.2     1  UNL1        0.2231
     40 C          26.8445   72.9426    3.1565 C.3     1  UNL1        0.0946
     41 N          24.3835   73.1626    3.2738 N.am    1  UNL1       -0.2994
     42 O          25.6722   74.9008    3.7573 O.2     1  UNL1       -0.2751
     43 H          24.3191   72.2333    3.0020 H       1  UNL1        0.1496
     44 C          18.9849   74.5814    4.0903 C.3     1  UNL1        0.1693
     45 O          18.3782   74.7870    2.8129 O.3     1  UNL1       -0.3794
     46 H          17.5226   75.2073    2.9739 H       1  UNL1        0.2105
@<TRIPOS>BOND
     1    29    30    1
     2    29    28    1
     3    29    36    1
     4    30    31    1
     5    30    41    1
     6    31    32    1
     7    31    34    1
     8    32    33    1
     9    32    35    1
    10    33    44    1
    11    33    36    1
    12    44    45    1
    13    39    40    1
    14    39    41   am
    15    39    42    2
    16    41    43    1
    17    28    25    1
    18    34    37    1
    19    35    38    1
    20    45    46    1
    21    15    16   ar
    22    15    20   ar
    23    15     6    1
    24    16    17   ar
    25    16    21    2
    26    17    18   ar
    27    17    23    1
    28    18    19   ar
    29    18    22    2
    30    19    20   ar
    31     6     7    1
    32     6    11    1
    33     7     8    1
    34     7     9    1
    35     8    13    1
    36     9    10    1
    37     9    12    1
    38    10    11    1
    39    10     5    1
    40    12    14    1
    41     5     4    1
    42     4     1    1
    43     1     2    2
    44     1     3    1
    45     1    24    1
    46    24    25    1
    47    25    26    2
    48    25    27    1
@<TRIPOS>MOLECULE
UD1
 46 48 0 0 0
SMALL
GASTEIGER

@<TRIPOS>ATOM
      1 P          21.3023   71.2379   -0.0100 P.3     1  UNL1        0.2189
      2 O          20.5246   72.3526    0.5743 O.2     1  UNL1       -0.5170
      3 O          21.4818   70.0748    1.0889 O.3     1  UNL1       -0.4371
      4 O          22.7511   71.7748   -0.4633 O.3     1  UNL1       -0.3112
      5 C          23.6922   71.2831    0.4921 C.3     1  UNL1        0.1811
      6 C          25.5645   73.1334    2.9411 C.3     1  UNL1        0.2383
      7 C          25.5503   74.0483    1.6909 C.3     1  UNL1        0.1895
      8 O          25.5845   75.4259    2.0652 O.3     1  UNL1       -0.3779
      9 C          24.1913   73.6858    1.0376 C.3     1  UNL1        0.1713
     10 C          23.8523   72.3010    1.6223 C.3     1  UNL1        0.1764
     11 O          24.9435   71.9163    2.4759 O.3     1  UNL1       -0.3308
     12 O          23.1932   74.6446    1.3942 O.3     1  UNL1       -0.3794
     13 H          25.5741   75.9393    1.2455 H       1  UNL1        0.2106
     14 H          23.4913   75.4982    1.0528 H       1  UNL1        0.2105
     15 N          26.9362   72.8772    3.3817 N.ar    1  UNL1       -0.2551
     16 C          27.5720   71.7668    2.9695 C.ar    1  UNL1        0.3323
     17 N          28.8353   71.5075    3.3557 N.ar    1  UNL1       -0.2743
     18 C          29.4835   72.3594    4.1755 C.ar    1  UNL1        0.2626
     19 C          28.8239   73.5292    4.6219 C.ar    1  UNL1        0.0795
     20 C          27.5587   73.7674    4.2148 C.ar    1  UNL1        0.0869
     21 O          27.0007   70.9889    2.2299 O.2     1  UNL1       -0.2464
     22 O          30.6240   72.1235    4.5292 O.2     1  UNL1       -0.2670
     23 H          29.2803   70.7041    3.0449 H       1  UNL1        0.1734
     24 O          20.5225   70.6525   -1.2899 O.3     1  UNL1       -0.2703
     25 P          20.9174   71.5842   -2.5410 P.3     1  UNL1        0.2208
     26 O          22.1673   71.0832   -3.1539 O.2     1  UNL1       -0.5170
     27 O          21.1372   73.0972   -2.0361 O.3     1  UNL1       -0.4371
     28 O          19.7341   71.5505   -3.6315 O.3     1  UNL1       -0.2865
     29 C          19.8540   70.3129   -4.3351 C.3     1  UNL1        0.2611
     30 C          19.8844   70.5881   -5.8395 C.3     1  UNL1        0.1582
     31 C          18.5973   71.3169   -6.2419 C.3     1  UNL1        0.1625
     32 C          17.3975   70.4987   -5.7529 C.3     1  UNL1        0.1686
     33 C          17.5532   70.2328   -4.2541 C.3     1  UNL1        0.1760
     34 O          18.5451   71.4466   -7.6638 O.3     1  UNL1       -0.3801
     35 O          16.1927   71.2302   -5.9873 O.3     1  UNL1       -0.3794
     36 O          18.7416   69.4785   -4.0192 O.3     1  UNL1       -0.3263
     37 H          17.7219   71.9096   -7.8721 H       1  UNL1        0.2105
     38 H          15.4645   70.6805   -5.6648 H       1  UNL1        0.2105
     39 C          20.9067   72.7618   -6.2449 C.2     1  UNL1        0.2231
     40 C          22.0992   73.6222   -6.5766 C.3     1  UNL1        0.0946
     41 N          21.0427   71.4244   -6.1612 N.am    1  UNL1       -0.2994
     42 O          19.8242   73.2736   -6.0540 O.2     1  UNL1       -0.2751
     43 H          21.9088   71.0145   -6.3143 H       1  UNL1        0.1496
     44 C          16.3435   69.4437   -3.7490 C.3     1  UNL1        0.1693
     45 O          15.7961   68.6727   -4.8204 O.3     1  UNL1       -0.3794
     46 H          15.0380   68.1924   -4.4607 H       1  UNL1        0.2105
@<TRIPOS>BOND
     1    29    30    1
     2    29    28    1
     3    29    36    1
     4    30    31    1
     5    30    41    1
     6    31    32    1
     7    31    34    1
     8    32    33    1
     9    32    35    1
    10    33    44    1
    11    33    36    1
    12    44    45    1
    13    39    40    1
    14    39    41   am
    15    39    42    2
    16    41    43    1
    17    28    25    1
    18    34    37    1
    19    35    38    1
    20    45    46    1
    21    15    16   ar
    22    15    20   ar
    23    15     6    1
    24    16    17   ar
    25    16    21    2
    26    17    18   ar
    27    17    23    1
    28    18    19   ar
    29    18    22    2
    30    19    20   ar
    31     6     7    1
    32     6    11    1
    33     7     8    1
    34     7     9    1
    35     8    13    1
    36     9    10    1
    37     9    12    1
    38    10    11    1
    39    10     5    1
    40    12    14    1
    41     5     4    1
    42     4     1    1
    43     1     2    2
    44     1     3    1
    45     1    24    1
    46    24    25    1
    47    25    26    2
    48    25    27    1
@<TRIPOS>MOLECULE
UD1
 46 48 0 0 0
SMALL
GASTEIGER

@<TRIPOS>ATOM
      1 P          21.5192   72.7841   -2.5866 P.3     1  UNL1        0.2189
      2 O          22.3751   73.0923   -3.7532 O.2     1  UNL1       -0.5170
      3 O          21.4269   74.0775   -1.6320 O.3     1  UNL1       -0.4371
      4 O          22.1565   71.5555   -1.7637 O.3     1  UNL1       -0.3112
      5 C          23.2947   72.0684   -1.0695 C.3     1  UNL1        0.1811
      6 C          24.8818   71.3535    2.0765 C.3     1  UNL1        0.2383
      7 C          23.6017   72.1387    2.4571 C.3     1  UNL1        0.1895
      8 O          23.1105   71.7277    3.7335 O.3     1  UNL1       -0.3779
      9 C          22.6204   71.7285    1.3283 C.3     1  UNL1        0.1713
     10 C          23.5398   71.2397    0.1924 C.3     1  UNL1        0.1764
     11 O          24.8971   71.4115    0.6342 O.3     1  UNL1       -0.3308
     12 O          21.7595   70.6771    1.7714 O.3     1  UNL1       -0.3794
     13 H          22.3173   72.2520    3.9105 H       1  UNL1        0.2106
     14 H          21.2551   71.0254    2.5186 H       1  UNL1        0.2105
     15 N          26.0717   71.9996    2.6316 N.ar    1  UNL1       -0.2551
     16 C          26.0243   73.2974    2.9792 C.ar    1  UNL1        0.3323
     17 N          27.1023   73.9164    3.4959 N.ar    1  UNL1       -0.2743
     18 C          28.2572   73.2415    3.6653 C.ar    1  UNL1        0.2626
     19 C          28.3227   71.8763    3.2981 C.ar    1  UNL1        0.0795
     20 C          27.2250   71.2787    2.7871 C.ar    1  UNL1        0.0869
     21 O          24.9899   73.9195    2.8325 O.2     1  UNL1       -0.2464
     22 O          29.2338   73.8014    4.1279 O.2     1  UNL1       -0.2670
     23 H          27.0488   74.8518    3.7456 H       1  UNL1        0.1734
     24 O          20.0455   72.3835   -3.0930 O.3     1  UNL1       -0.2703
     25 P          20.0234   70.7811   -3.2382 P.3     1  UNL1        0.2208
     26 O          19.4356   70.1835   -2.0191 O.2     1  UNL1       -0.5170
     27 O          21.5270   70.2381   -3.4297 O.3     1  UNL1       -0.4371
     28 O          19.1386   70.3690   -4.5180 O.3     1  UNL1       -0.2865
     29 C          18.6347   71.5815   -5.0812 C.3     1  UNL1        0.2611
     30 C          17.1491   71.4095   -5.4032 C.3     1  UNL1        0.1582
     31 C          16.9808   70.2454   -6.3860 C.3     1  UNL1        0.1625
     32 C          17.8863   70.4918   -7.5974 C.3     1  UNL1        0.1686
     33 C          19.3170   70.7299   -7.1099 C.3     1  UNL1        0.1760
     34 O          15.6184   70.1698   -6.8098 O.3     1  UNL1       -0.3801
     35 O          17.8563   69.3504   -8.4565 O.3     1  UNL1       -0.3794
     36 O          19.3553   71.8855   -6.2735 O.3     1  UNL1       -0.3263
     37 H          15.5580   69.4259   -7.4249 H       1  UNL1        0.2105
     38 H          18.4389   69.5474   -9.2037 H       1  UNL1        0.2105
     39 C          16.2277   69.8479   -3.7764 C.2     1  UNL1        0.2231
     40 C          15.4672   69.5528   -2.5088 C.3     1  UNL1        0.0946
     41 N          16.4109   71.1224   -4.1715 N.am    1  UNL1       -0.2994
     42 O          16.6742   68.9376   -4.4414 O.2     1  UNL1       -0.2751
     43 H          16.0535   71.8511   -3.6397 H       1  UNL1        0.1496
     44 C          20.2357   70.9449   -8.3144 C.3     1  UNL1        0.1693
     45 O          19.4511   71.2973   -9.4556 O.3     1  UNL1       -0.3794
     46 H          20.0666   71.4232  -10.1904 H       1  UNL1        0.2105
@<TRIPOS>BOND
     1    29    30    1
     2    29    28    1
     3    29    36    1
     4    30    31    1
     5    30    41    1
     6    31    32    1
     7    31    34    1
     8    32    33    1
     9    32    35    1
    10    33    44    1
    11    33    36    1
    12    44    45    1
    13    39    40    1
    14    39    41   am
    15    39    42    2
    16    41    43    1
    17    28    25    1
    18    34    37    1
    19    35    38    1
    20    45    46    1
    21    15    16   ar
    22    15    20   ar
    23    15     6    1
    24    16    17   ar
    25    16    21    2
    26    17    18   ar
    27    17    23    1
    28    18    19   ar
    29    18    22    2
    30    19    20   ar
    31     6     7    1
    32     6    11    1
    33     7     8    1
    34     7     9    1
    35     8    13    1
    36     9    10    1
    37     9    12    1
    38    10    11    1
    39    10     5    1
    40    12    14    1
    41     5     4    1
    42     4     1    1
    43     1     2    2
    44     1     3    1
    45     1    24    1
    46    24    25    1
    47    25    26    2
    48    25    27    1
@<TRIPOS>MOLECULE
UD1
 46 48 0 0 0
SMALL
GASTEIGER

@<TRIPOS>ATOM
      1 P          16.6821   71.9148   -2.2757 P.3     1  UNL1        0.2189
      2 O          17.4891   70.6874   -2.0993 O.2     1  UNL1       -0.5170
      3 O          16.9856   72.9349   -1.0675 O.3     1  UNL1       -0.4371
      4 O          15.1178   71.5327   -2.2740 O.3     1  UNL1       -0.3112
      5 C          14.8512   70.8854   -1.0289 C.3     1  UNL1        0.1811
      6 C          12.5997   68.3061    0.0687 C.3     1  UNL1        0.2383
      7 C          11.8722   69.6295    0.4148 C.3     1  UNL1        0.1895
      8 O          10.4552   69.4676    0.3434 O.3     1  UNL1       -0.3779
      9 C          12.3775   70.5803   -0.7014 C.3     1  UNL1        0.1713
     10 C          13.6780   69.9186   -1.1965 C.3     1  UNL1        0.1764
     11 O          13.8942   68.7440   -0.3960 O.3     1  UNL1       -0.3308
     12 O          11.4185   70.6659   -1.7577 O.3     1  UNL1       -0.3794
     13 H          10.0638   70.3228    0.5691 H       1  UNL1        0.2106
     14 H          10.6105   71.0305   -1.3726 H       1  UNL1        0.2105
     15 N          12.7360   67.4623    1.2565 N.ar    1  UNL1       -0.2551
     16 C          11.8202   66.5103    1.5061 C.ar    1  UNL1        0.3323
     17 N          11.9225   65.7171    2.5890 N.ar    1  UNL1       -0.2743
     18 C          12.9476   65.8727    3.4509 C.ar    1  UNL1        0.2626
     19 C          13.9155   66.8750    3.2033 C.ar    1  UNL1        0.0795
     20 C          13.7916   67.6532    2.1068 C.ar    1  UNL1        0.0869
     21 O          10.8899   66.3577    0.7381 O.2     1  UNL1       -0.2464
     22 O          13.0384   65.1592    4.4327 O.2     1  UNL1       -0.2670
     23 H          11.2554   65.0323    2.7510 H       1  UNL1        0.1734
     24 O          17.0627   72.6108   -3.6755 O.3     1  UNL1       -0.2703
     25 P          18.5597   73.1802   -3.5197 P.3     1  UNL1        0.2208
     26 O          19.2295   72.5030   -2.3877 O.2     1  UNL1       -0.5170
     27 O          18.5054   74.7648   -3.2400 O.3     1  UNL1       -0.4371
     28 O          19.3841   72.9038   -4.8741 O.3     1  UNL1       -0.2865
     29 C          20.0576   71.6556   -4.7019 C.3     1  UNL1        0.2611
     30 C          21.5586   71.8578   -4.9169 C.3     1  UNL1        0.1582
     31 C          21.7931   72.4091   -6.3278 C.3     1  UNL1        0.1625
     32 C          21.1092   71.4805   -7.3368 C.3     1  UNL1        0.1686
     33 C          19.6411   71.3092   -6.9409 C.3     1  UNL1        0.1760
     34 O          23.1958   72.4614   -6.5945 O.3     1  UNL1       -0.3801
     35 O          21.1896   72.0525   -8.6436 O.3     1  UNL1       -0.3794
     36 O          19.5571   70.7126   -5.6472 O.3     1  UNL1       -0.3263
     37 H          23.2971   72.8133   -7.4896 H       1  UNL1        0.2105
     38 H          20.7474   71.4375   -9.2459 H       1  UNL1        0.2105
     39 C          23.2857   72.6177   -3.3761 C.2     1  UNL1        0.2231
     40 C          23.8132   73.5956   -2.3574 C.3     1  UNL1        0.0946
     41 N          22.0716   72.8078   -3.9275 N.am    1  UNL1       -0.2994
     42 O          23.9543   71.6591   -3.6992 O.2     1  UNL1       -0.2751
     43 H          21.5363   73.5747   -3.6690 H       1  UNL1        0.1496
     44 C          18.9408   70.4091   -7.9609 C.3     1  UNL1        0.1693
     45 O          18.5280   71.1916   -9.0831 O.3     1  UNL1       -0.3794
     46 H          18.0922   70.5881   -9.7000 H       1  UNL1        0.2105
@<TRIPOS>BOND
     1    29    30    1
     2    29    28    1
     3    29    36    1
     4    30    31    1
     5    30    41    1
     6    31    32    1
     7    31    34    1
     8    32    33    1
     9    32    35    1
    10    33    44    1
    11    33    36    1
    12    44    45    1
    13    39    40    1
    14    39    41   am
    15    39    42    2
    16    41    43    1
    17    28    25    1
    18    34    37    1
    19    35    38    1
    20    45    46    1
    21    15    16   ar
    22    15    20   ar
    23    15     6    1
    24    16    17   ar
    25    16    21    2
    26    17    18   ar
    27    17    23    1
    28    18    19   ar
    29    18    22    2
    30    19    20   ar
    31     6     7    1
    32     6    11    1
    33     7     8    1
    34     7     9    1
    35     8    13    1
    36     9    10    1
    37     9    12    1
    38    10    11    1
    39    10     5    1
    40    12    14    1
    41     5     4    1
    42     4     1    1
    43     1     2    2
    44     1     3    1
    45     1    24    1
    46    24    25    1
    47    25    26    2
    48    25    27    1
@<TRIPOS>MOLECULE
UD1
 46 48 0 0 0
SMALL
GASTEIGER

@<TRIPOS>ATOM
      1 P          20.9500   71.3525   -2.8870 P.3     1  UNL1        0.2189
      2 O          22.0884   70.6814   -2.2220 O.2     1  UNL1       -0.5170
      3 O          20.3947   72.5312   -1.9410 O.3     1  UNL1       -0.4371
      4 O          19.7772   70.2816   -3.1528 O.3     1  UNL1       -0.3112
      5 C          18.6177   70.7594   -2.4691 C.3     1  UNL1        0.1811
      6 C          17.0410   70.4856   -5.6888 C.3     1  UNL1        0.2383
      7 C          17.0395   69.0400   -5.1316 C.3     1  UNL1        0.1895
      8 O          15.9123   68.3076   -5.6137 O.3     1  UNL1       -0.3779
      9 C          16.9308   69.2802   -3.6033 C.3     1  UNL1        0.1713
     10 C          17.4175   70.7303   -3.4167 C.3     1  UNL1        0.1764
     11 O          17.8042   71.2235   -4.7107 O.3     1  UNL1       -0.3308
     12 O          15.5760   69.1406   -3.1699 O.3     1  UNL1       -0.3794
     13 H          15.9705   67.4207   -5.2323 H       1  UNL1        0.2106
     14 H          15.3118   68.2322   -3.3675 H       1  UNL1        0.2105
     15 N          17.6929   70.5369   -6.9980 N.ar    1  UNL1       -0.2551
     16 C          16.9513   70.4455   -8.1156 C.ar    1  UNL1        0.3323
     17 N          17.5236   70.4937   -9.3331 N.ar    1  UNL1       -0.2743
     18 C          18.8602   70.6262   -9.4508 C.ar    1  UNL1        0.2626
     19 C          19.6535   70.7175   -8.2823 C.ar    1  UNL1        0.0795
     20 C          19.0530   70.6718   -7.0738 C.ar    1  UNL1        0.0869
     21 O          15.7445   70.3257   -8.0258 O.2     1  UNL1       -0.2464
     22 O          19.3793   70.6650  -10.5510 O.2     1  UNL1       -0.2670
     23 H          16.9729   70.4310  -10.1286 H       1  UNL1        0.1734
     24 O          21.4375   71.9732   -4.2892 O.3     1  UNL1       -0.2703
     25 P          22.5416   73.0916   -3.9437 P.3     1  UNL1        0.2208
     26 O          23.6450   73.0154   -4.9264 O.2     1  UNL1       -0.5170
     27 O          23.1227   72.8341   -2.4644 O.3     1  UNL1       -0.4371
     28 O          21.8667   74.5513   -4.0069 O.3     1  UNL1       -0.2865
     29 C          20.9466   74.5356   -5.0998 C.3     1  UNL1        0.2611
     30 C          21.1554   75.7874   -5.9539 C.3     1  UNL1        0.1582
     31 C          20.9398   77.0301   -5.0829 C.3     1  UNL1        0.1625
     32 C          19.5687   76.9232   -4.4071 C.3     1  UNL1        0.1686
     33 C          19.4808   75.5868   -3.6670 C.3     1  UNL1        0.1760
     34 O          20.9845   78.2013   -5.9001 O.3     1  UNL1       -0.3801
     35 O          19.4087   77.9970   -3.4781 O.3     1  UNL1       -0.3794
     36 O          19.6128   74.5116   -4.5960 O.3     1  UNL1       -0.3263
     37 H          20.8450   78.9571   -5.3131 H       1  UNL1        0.2105
     38 H          18.5349   77.8910   -3.0759 H       1  UNL1        0.2105
     39 C          22.7425   76.1780   -7.7602 C.2     1  UNL1        0.2231
     40 C          24.1459   76.1838   -8.3105 C.3     1  UNL1        0.0946
     41 N          22.5185   75.7937   -6.4888 N.am    1  UNL1       -0.2994
     42 O          21.8145   76.5187   -8.4623 O.2     1  UNL1       -0.2751
     43 H          23.2610   75.5207   -5.9268 H       1  UNL1        0.1496
     44 C          18.1270   75.4841   -2.9614 C.3     1  UNL1        0.1693
     45 O          18.0277   74.2203   -2.3019 O.3     1  UNL1       -0.3794
     46 H          17.1624   74.1964   -1.8715 H       1  UNL1        0.2105
@<TRIPOS>BOND
     1    29    30    1
     2    29    28    1
     3    29    36    1
     4    30    31    1
     5    30    41    1
     6    31    32    1
     7    31    34    1
     8    32    33    1
     9    32    35    1
    10    33    44    1
    11    33    36    1
    12    44    45    1
    13    39    40    1
    14    39    41   am
    15    39    42    2
    16    41    43    1
    17    28    25    1
    18    34    37    1
    19    35    38    1
    20    45    46    1
    21    15    16   ar
    22    15    20   ar
    23    15     6    1
    24    16    17   ar
    25    16    21    2
    26    17    18   ar
    27    17    23    1
    28    18    19   ar
    29    18    22    2
    30    19    20   ar
    31     6     7    1
    32     6    11    1
    33     7     8    1
    34     7     9    1
    35     8    13    1
    36     9    10    1
    37     9    12    1
    38    10    11    1
    39    10     5    1
    40    12    14    1
    41     5     4    1
    42     4     1    1
    43     1     2    2
    44     1     3    1
    45     1    24    1
    46    24    25    1
    47    25    26    2
    48    25    27    1
@<TRIPOS>MOLECULE
UD1
 46 48 0 0 0
SMALL
GASTEIGER

@<TRIPOS>ATOM
      1 P          22.2009   72.4430   -1.2355 P.3     1  UNL1        0.2189
      2 O          20.8088   72.0131   -0.9784 O.2     1  UNL1       -0.5170
      3 O          22.3395   74.0193   -0.9378 O.3     1  UNL1       -0.4371
      4 O          22.5758   72.1535   -2.7745 O.3     1  UNL1       -0.3112
      5 C          21.5315   71.3382   -3.3085 C.3     1  UNL1        0.1811
      6 C          20.4207   71.1196   -6.7211 C.3     1  UNL1        0.2383
      7 C          20.7680   72.6161   -6.5210 C.3     1  UNL1        0.1895
      8 O          21.2227   73.2029   -7.7410 O.3     1  UNL1       -0.3779
      9 C          21.9144   72.5479   -5.4788 C.3     1  UNL1        0.1713
     10 C          21.7352   71.1689   -4.8149 C.3     1  UNL1        0.1764
     11 O          20.5723   70.5583   -5.3999 O.3     1  UNL1       -0.3308
     12 O          23.1854   72.6370   -6.1265 O.3     1  UNL1       -0.3794
     13 H          21.4207   74.1300   -7.5492 H       1  UNL1        0.2106
     14 H          23.2124   73.4945   -6.5716 H       1  UNL1        0.2105
     15 N          19.0442   70.9645   -7.1930 N.ar    1  UNL1       -0.2551
     16 C          18.7981   70.8744   -8.5116 C.ar    1  UNL1        0.3323
     17 N          17.5423   70.7272   -8.9738 N.ar    1  UNL1       -0.2743
     18 C          16.5038   70.6768   -8.1154 C.ar    1  UNL1        0.2626
     19 C          16.7481   70.7765   -6.7249 C.ar    1  UNL1        0.0795
     20 C          18.0180   70.9182   -6.2883 C.ar    1  UNL1        0.0869
     21 O          19.7242   70.9181   -9.2983 O.2     1  UNL1       -0.2464
     22 O          15.3676   70.5486   -8.5324 O.2     1  UNL1       -0.2670
     23 H          17.3836   70.6590   -9.9279 H       1  UNL1        0.1734
     24 O          23.2010   71.6248   -0.2767 O.3     1  UNL1       -0.2703
     25 P          22.4906   71.5307    1.1641 P.3     1  UNL1        0.2208
     26 O          23.4365   70.9519    2.1434 O.2     1  UNL1       -0.5170
     27 O          21.1862   70.5926    1.0599 O.3     1  UNL1       -0.4371
     28 O          22.0538   73.0030    1.6457 O.3     1  UNL1       -0.2865
     29 C          20.8620   72.8498    2.4185 C.3     1  UNL1        0.2611
     30 C          19.9157   74.0151    2.1240 C.3     1  UNL1        0.1582
     31 C          20.6195   75.3320    2.4702 C.3     1  UNL1        0.1625
     32 C          21.1259   75.2522    3.9143 C.3     1  UNL1        0.1686
     33 C          21.9835   73.9950    4.0729 C.3     1  UNL1        0.1760
     34 O          19.6974   76.4159    2.3418 O.3     1  UNL1       -0.3801
     35 O          21.9114   76.4087    4.2099 O.3     1  UNL1       -0.3794
     36 O          21.1947   72.8363    3.8050 O.3     1  UNL1       -0.3263
     37 H          20.1810   77.2223    2.5680 H       1  UNL1        0.2105
     38 H          22.2099   76.3174    5.1259 H       1  UNL1        0.2105
     39 C          18.3031   74.3169    0.3233 C.2     1  UNL1        0.2231
     40 C          17.9349   74.3097   -1.1384 C.3     1  UNL1        0.0946
     41 N          19.5578   74.0087    0.7041 N.am    1  UNL1       -0.2994
     42 O          17.4694   74.5997    1.1571 O.2     1  UNL1       -0.2751
     43 H          20.2251   73.7821    0.0371 H       1  UNL1        0.1496
     44 C          22.5211   73.9230    5.5036 C.3     1  UNL1        0.1693
     45 O          22.4941   72.5675    5.9554 O.3     1  UNL1       -0.3794
     46 H          22.8396   72.5666    6.8583 H       1  UNL1        0.2105
@<TRIPOS>BOND
     1    29    30    1
     2    29    28    1
     3    29    36    1
     4    30    31    1
     5    30    41    1
     6    31    32    1
     7    31    34    1
     8    32    33    1
     9    32    35    1
    10    33    44    1
    11    33    36    1
    12    44    45    1
    13    39    40    1
    14    39    41   am
    15    39    42    2
    16    41    43    1
    17    28    25    1
    18    34    37    1
    19    35    38    1
    20    45    46    1
    21    15    16   ar
    22    15    20   ar
    23    15     6    1
    24    16    17   ar
    25    16    21    2
    26    17    18   ar
    27    17    23    1
    28    18    19   ar
    29    18    22    2
    30    19    20   ar
    31     6     7    1
    32     6    11    1
    33     7     8    1
    34     7     9    1
    35     8    13    1
    36     9    10    1
    37     9    12    1
    38    10    11    1
    39    10     5    1
    40    12    14    1
    41     5     4    1
    42     4     1    1
    43     1     2    2
    44     1     3    1
    45     1    24    1
    46    24    25    1
    47    25    26    2
    48    25    27    1
