@<TRIPOS>MOLECULE
UD1
 46 48 0 0 0
SMALL
GASTEIGER

@<TRIPOS>ATOM
      1 P          21.6300   70.7649   -2.4440 P.3     1  UNL1        0.2189
      2 O          23.0989   70.8138   -2.6134 O.2     1  UNL1       -0.5170
      3 O          21.1215   69.2456   -2.6046 O.3     1  UNL1       -0.4371
      4 O          20.9301   71.6853   -3.5646 O.3     1  UNL1       -0.3112
      5 C          19.8822   72.4053   -2.9135 C.3     1  UNL1        0.1811
      6 C          17.8818   71.3407   -5.7050 C.3     1  UNL1        0.2383
      7 C          17.9544   70.0977   -4.7831 C.3     1  UNL1        0.1895
      8 O          16.7714   69.3063   -4.8980 O.3     1  UNL1       -0.3779
      9 C          18.0550   70.7416   -3.3758 C.3     1  UNL1        0.1713
     10 C          18.5642   72.1693   -3.6528 C.3     1  UNL1        0.1764
     11 O          18.7718   72.2838   -5.0709 O.3     1  UNL1       -0.3308
     12 O          16.7717   70.7743   -2.7476 O.3     1  UNL1       -0.3794
     13 H          16.8799   68.5520   -4.3023 H       1  UNL1        0.2106
     14 H          16.4820   69.8568   -2.6563 H       1  UNL1        0.2105
     15 N          18.3496   71.0156   -7.0530 N.ar    1  UNL1       -0.2551
     16 C          17.4613   70.6707   -8.0014 C.ar    1  UNL1        0.3323
     17 N          17.8627   70.3705   -9.2507 N.ar    1  UNL1       -0.2743
     18 C          19.1724   70.4024   -9.5697 C.ar    1  UNL1        0.2626
     19 C          20.1188   70.7580   -8.5794 C.ar    1  UNL1        0.0795
     20 C          19.6882   71.0597   -7.3357 C.ar    1  UNL1        0.0869
     21 O          16.2767   70.6375   -7.7291 O.2     1  UNL1       -0.2464
     22 O          19.5369   70.1265  -10.6978 O.2     1  UNL1       -0.2670
     23 H          17.2078   70.1284   -9.9236 H       1  UNL1        0.1734
     24 O          21.2399   71.3105   -0.9814 O.3     1  UNL1       -0.2703
     25 P          22.2734   70.6420    0.0550 P.3     1  UNL1        0.2208
     26 O          23.5445   70.3423   -0.6401 O.2     1  UNL1       -0.5170
     27 O          21.6455   69.2778    0.6355 O.3     1  UNL1       -0.4371
     28 O          22.5531   71.6614    1.2688 O.3     1  UNL1       -0.2865
     29 C          21.7466   72.8170    1.0337 C.3     1  UNL1        0.2611
     30 C          22.6453   73.9853    0.6245 C.3     1  UNL1        0.1582
     31 C          23.6604   74.2520    1.7416 C.3     1  UNL1        0.1625
     32 C          22.9009   74.4438    3.0585 C.3     1  UNL1        0.1686
     33 C          21.9850   73.2393    3.2856 C.3     1  UNL1        0.1760
     34 O          24.4064   75.4324    1.4389 O.3     1  UNL1       -0.3801
     35 O          23.8325   74.5477    4.1369 O.3     1  UNL1       -0.3794
     36 O          21.0354   73.1487    2.2243 O.3     1  UNL1       -0.3263
     37 H          25.0314   75.5619    2.1655 H       1  UNL1        0.2105
     38 H          23.3132   74.6664    4.9448 H       1  UNL1        0.2105
     39 C          23.1737   74.3965   -1.7177 C.2     1  UNL1        0.2231
     40 C          23.9029   74.0492   -2.9905 C.3     1  UNL1        0.0946
     41 N          23.3538   73.6486   -0.6121 N.am    1  UNL1       -0.2994
     42 O          22.4241   75.3491   -1.6890 O.2     1  UNL1       -0.2751
     43 H          23.9534   72.8861   -0.6349 H       1  UNL1        0.1496
     44 C          21.2457   73.4057    4.6149 C.3     1  UNL1        0.1693
     45 O          22.1153   73.0504    5.6918 O.3     1  UNL1       -0.3794
     46 H          21.6119   73.1687    6.5086 H       1  UNL1        0.2105
@<TRIPOS>BOND
     1    29    30    1
     2    29    28    1
     3    29    36    1
     4    30    31    1
     5    30    41    1
     6    31    32    1
     7    31    34    1
     8    32    33    1
     9    32    35    1
    10    33    44    1
    11    33    36    1
    12    44    45    1
    13    39    40    1
    14    39    41   am
    15    39    42    2
    16    41    43    1
    17    28    25    1
    18    34    37    1
    19    35    38    1
    20    45    46    1
    21    15    16   ar
    22    15    20   ar
    23    15     6    1
    24    16    17   ar
    25    16    21    2
    26    17    18   ar
    27    17    23    1
    28    18    19   ar
    29    18    22    2
    30    19    20   ar
    31     6     7    1
    32     6    11    1
    33     7     8    1
    34     7     9    1
    35     8    13    1
    36     9    10    1
    37     9    12    1
    38    10    11    1
    39    10     5    1
    40    12    14    1
    41     5     4    1
    42     4     1    1
    43     1     2    2
    44     1     3    1
    45     1    24    1
    46    24    25    1
    47    25    26    2
    48    25    27    1
@<TRIPOS>MOLECULE
UD1
 46 48 0 0 0
SMALL
GASTEIGER

@<TRIPOS>ATOM
      1 P          21.6846   70.3163   -0.5221 P.3     1  UNL1        0.2189
      2 O          22.9012   70.6330   -1.3021 O.2     1  UNL1       -0.5170
      3 O          22.0292   69.1906    0.5764 O.3     1  UNL1       -0.4371
      4 O          20.5409   69.7656   -1.5128 O.3     1  UNL1       -0.3112
      5 C          20.8208   70.3019   -2.8068 C.3     1  UNL1        0.1811
      6 C          18.4940   71.0648   -5.4395 C.3     1  UNL1        0.2383
      7 C          17.9382   69.7712   -4.7929 C.3     1  UNL1        0.1895
      8 O          16.5142   69.7228   -4.8892 O.3     1  UNL1       -0.3779
      9 C          18.3881   69.9257   -3.3168 C.3     1  UNL1        0.1713
     10 C          19.5526   70.9326   -3.3838 C.3     1  UNL1        0.1764
     11 O          19.7567   71.2619   -4.7684 O.3     1  UNL1       -0.3308
     12 O          17.3192   70.4395   -2.5191 O.3     1  UNL1       -0.3794
     13 H          16.2330   68.8973   -4.4708 H       1  UNL1        0.2106
     14 H          16.6010   69.7944   -2.5656 H       1  UNL1        0.2105
     15 N          18.6966   70.8812   -6.8771 N.ar    1  UNL1       -0.2551
     16 C          17.6381   70.8908   -7.7057 C.ar    1  UNL1        0.3323
     17 N          17.7951   70.7283   -9.0328 N.ar    1  UNL1       -0.2743
     18 C          19.0248   70.5429   -9.5538 C.ar    1  UNL1        0.2626
     19 C          20.1474   70.5247   -8.6922 C.ar    1  UNL1        0.0795
     20 C          19.9618   70.6954   -7.3656 C.ar    1  UNL1        0.0869
     21 O          16.5226   71.0570   -7.2509 O.2     1  UNL1       -0.2464
     22 O          19.1675   70.3911  -10.7530 O.2     1  UNL1       -0.2670
     23 H          17.0209   70.7427   -9.6163 H       1  UNL1        0.1734
     24 O          21.1597   71.6457    0.2168 O.3     1  UNL1       -0.2703
     25 P          22.0198   71.7967    1.5684 P.3     1  UNL1        0.2208
     26 O          22.7961   70.5587    1.7998 O.2     1  UNL1       -0.5170
     27 O          21.0279   72.0475    2.8115 O.3     1  UNL1       -0.4371
     28 O          23.0278   73.0437    1.4280 O.3     1  UNL1       -0.2865
     29 C          22.2683   74.1333    0.9014 C.3     1  UNL1        0.2611
     30 C          23.0151   74.7417   -0.2869 C.3     1  UNL1        0.1582
     31 C          24.3949   75.2193    0.1795 C.3     1  UNL1        0.1625
     32 C          24.2102   76.1527    1.3807 C.3     1  UNL1        0.1686
     33 C          23.3758   75.4365    2.4446 C.3     1  UNL1        0.1760
     34 O          25.0424   75.9225   -0.8825 O.3     1  UNL1       -0.3801
     35 O          25.4879   76.4929    1.9224 O.3     1  UNL1       -0.3794
     36 O          22.0889   75.1197    1.9154 O.3     1  UNL1       -0.3263
     37 H          25.9045   76.2039   -0.5464 H       1  UNL1        0.2105
     38 H          25.3255   77.0794    2.6749 H       1  UNL1        0.2105
     39 C          23.0179   74.0713   -2.6289 C.2     1  UNL1        0.2231
     40 C          23.1812   73.0308   -3.7073 C.3     1  UNL1        0.0946
     41 N          23.1741   73.7314   -1.3349 N.am    1  UNL1       -0.2994
     42 O          22.7452   75.2147   -2.9260 O.2     1  UNL1       -0.2751
     43 H          23.3921   72.8163   -1.0969 H       1  UNL1        0.1496
     44 C          23.2129   76.3485    3.6624 C.3     1  UNL1        0.1693
     45 O          21.8515   76.3259    4.0963 O.3     1  UNL1       -0.3794
     46 H          21.7924   76.9120    4.8629 H       1  UNL1        0.2105
@<TRIPOS>BOND
     1    29    30    1
     2    29    28    1
     3    29    36    1
     4    30    31    1
     5    30    41    1
     6    31    32    1
     7    31    34    1
     8    32    33    1
     9    32    35    1
    10    33    44    1
    11    33    36    1
    12    44    45    1
    13    39    40    1
    14    39    41   am
    15    39    42    2
    16    41    43    1
    17    28    25    1
    18    34    37    1
    19    35    38    1
    20    45    46    1
    21    15    16   ar
    22    15    20   ar
    23    15     6    1
    24    16    17   ar
    25    16    21    2
    26    17    18   ar
    27    17    23    1
    28    18    19   ar
    29    18    22    2
    30    19    20   ar
    31     6     7    1
    32     6    11    1
    33     7     8    1
    34     7     9    1
    35     8    13    1
    36     9    10    1
    37     9    12    1
    38    10    11    1
    39    10     5    1
    40    12    14    1
    41     5     4    1
    42     4     1    1
    43     1     2    2
    44     1     3    1
    45     1    24    1
    46    24    25    1
    47    25    26    2
    48    25    27    1
@<TRIPOS>MOLECULE
UD1
 46 48 0 0 0
SMALL
GASTEIGER

@<TRIPOS>ATOM
      1 P          21.8927   70.8400   -0.6795 P.3     1  UNL1        0.2189
      2 O          22.6337   70.2689   -1.8256 O.2     1  UNL1       -0.5170
      3 O          21.5716   69.6760    0.3857 O.3     1  UNL1       -0.4371
      4 O          20.5122   71.4843   -1.2010 O.3     1  UNL1       -0.3112
      5 C          20.6049   71.5652   -2.6241 C.3     1  UNL1        0.1811
      6 C          18.1661   71.2230   -5.2438 C.3     1  UNL1        0.2383
      7 C          18.0671   69.8987   -4.4459 C.3     1  UNL1        0.1895
      8 O          16.7397   69.3740   -4.4890 O.3     1  UNL1       -0.3779
      9 C          18.4353   70.3552   -3.0102 C.3     1  UNL1        0.1713
     10 C          19.2015   71.6753   -3.2221 C.3     1  UNL1        0.1764
     11 O          19.2901   71.8978   -4.6398 O.3     1  UNL1       -0.3308
     12 O          17.2538   70.5737   -2.2362 O.3     1  UNL1       -0.3794
     13 H          16.7459   68.5537   -3.9765 H       1  UNL1        0.2106
     14 H          16.7896   69.7272   -2.1903 H       1  UNL1        0.2105
     15 N          18.4232   70.9582   -6.6599 N.ar    1  UNL1       -0.2551
     16 C          17.3908   70.7907   -7.5045 C.ar    1  UNL1        0.3323
     17 N          17.5976   70.5499   -8.8128 N.ar    1  UNL1       -0.2743
     18 C          18.8527   70.4631   -9.2976 C.ar    1  UNL1        0.2626
     19 C          19.9488   70.6314   -8.4183 C.ar    1  UNL1        0.0795
     20 C          19.7128   70.8773   -7.1117 C.ar    1  UNL1        0.0869
     21 O          16.2530   70.8661   -7.0823 O.2     1  UNL1       -0.2464
     22 O          19.0409   70.2407  -10.4793 O.2     1  UNL1       -0.2670
     23 H          16.8411   70.4364   -9.4086 H       1  UNL1        0.1734
     24 O          22.7853   71.9798    0.0225 O.3     1  UNL1       -0.2703
     25 P          21.8644   72.6612    1.1525 P.3     1  UNL1        0.2208
     26 O          21.2417   71.6070    1.9829 O.2     1  UNL1       -0.5170
     27 O          20.7129   73.5398    0.4496 O.3     1  UNL1       -0.4371
     28 O          22.7701   73.6122    2.0831 O.3     1  UNL1       -0.2865
     29 C          21.9649   74.7397    2.4314 C.3     1  UNL1        0.2611
     30 C          22.8048   76.0135    2.3214 C.3     1  UNL1        0.1582
     31 C          24.0121   75.9004    3.2591 C.3     1  UNL1        0.1625
     32 C          23.5088   75.5709    4.6684 C.3     1  UNL1        0.1686
     33 C          22.6181   74.3285    4.6018 C.3     1  UNL1        0.1760
     34 O          24.7215   77.1404    3.2780 O.3     1  UNL1       -0.3801
     35 O          24.6228   75.3166    5.5264 O.3     1  UNL1       -0.3794
     36 O          21.4900   74.5883    3.7674 O.3     1  UNL1       -0.3263
     37 H          25.4709   77.0245    3.8783 H       1  UNL1        0.2105
     38 H          24.2617   75.1132    6.4008 H       1  UNL1        0.2105
     39 C          24.4912   75.7387    0.5851 C.2     1  UNL1        0.2231
     40 C          24.9683   75.9076   -0.8348 C.3     1  UNL1        0.0946
     41 N          23.2686   76.1768    0.9420 N.am    1  UNL1       -0.2994
     42 O          25.2084   75.2088    1.4067 O.2     1  UNL1       -0.2751
     43 H          22.6945   76.6011    0.2847 H       1  UNL1        0.1496
     44 C          22.1364   73.9718    6.0096 C.3     1  UNL1        0.1693
     45 O          20.9314   73.2087    5.9221 O.3     1  UNL1       -0.3794
     46 H          20.6624   73.0056    6.8282 H       1  UNL1        0.2105
@<TRIPOS>BOND
     1    29    30    1
     2    29    28    1
     3    29    36    1
     4    30    31    1
     5    30    41    1
     6    31    32    1
     7    31    34    1
     8    32    33    1
     9    32    35    1
    10    33    44    1
    11    33    36    1
    12    44    45    1
    13    39    40    1
    14    39    41   am
    15    39    42    2
    16    41    43    1
    17    28    25    1
    18    34    37    1
    19    35    38    1
    20    45    46    1
    21    15    16   ar
    22    15    20   ar
    23    15     6    1
    24    16    17   ar
    25    16    21    2
    26    17    18   ar
    27    17    23    1
    28    18    19   ar
    29    18    22    2
    30    19    20   ar
    31     6     7    1
    32     6    11    1
    33     7     8    1
    34     7     9    1
    35     8    13    1
    36     9    10    1
    37     9    12    1
    38    10    11    1
    39    10     5    1
    40    12    14    1
    41     5     4    1
    42     4     1    1
    43     1     2    2
    44     1     3    1
    45     1    24    1
    46    24    25    1
    47    25    26    2
    48    25    27    1
@<TRIPOS>MOLECULE
UD1
 46 48 0 0 0
SMALL
GASTEIGER

@<TRIPOS>ATOM
      1 P          21.8717   71.3338   -1.7973 P.3     1  UNL1        0.2189
      2 O          22.4372   71.7727   -3.0920 O.2     1  UNL1       -0.5170
      3 O          22.0187   69.7362   -1.6613 O.3     1  UNL1       -0.4371
      4 O          20.3140   71.7361   -1.7287 O.3     1  UNL1       -0.3112
      5 C          20.0744   72.6481   -2.8016 C.3     1  UNL1        0.1811
      6 C          17.8791   71.4558   -5.3874 C.3     1  UNL1        0.2383
      7 C          18.0604   70.2420   -4.4419 C.3     1  UNL1        0.1895
      8 O          16.8932   69.4193   -4.4367 O.3     1  UNL1       -0.3779
      9 C          18.2599   70.9282   -3.0655 C.3     1  UNL1        0.1713
     10 C          18.7066   72.3593   -3.4220 C.3     1  UNL1        0.1764
     11 O          18.7932   72.4380   -4.8550 O.3     1  UNL1       -0.3308
     12 O          17.0324   70.9480   -2.3337 O.3     1  UNL1       -0.3794
     13 H          17.0705   68.6853   -3.8323 H       1  UNL1        0.2106
     14 H          16.7756   70.0267   -2.1942 H       1  UNL1        0.2105
     15 N          18.2422   71.1035   -6.7605 N.ar    1  UNL1       -0.2551
     16 C          17.2868   70.7193   -7.6247 C.ar    1  UNL1        0.3323
     17 N          17.5914   70.3933   -8.8948 N.ar    1  UNL1       -0.2743
     18 C          18.8701   70.4387   -9.3199 C.ar    1  UNL1        0.2626
     19 C          19.8867   70.8358   -8.4189 C.ar    1  UNL1        0.0795
     20 C          19.5526   71.1626   -7.1521 C.ar    1  UNL1        0.0869
     21 O          16.1289   70.6734   -7.2562 O.2     1  UNL1       -0.2464
     22 O          19.1473   70.1396  -10.4667 O.2     1  UNL1       -0.2670
     23 H          16.8889   70.1229   -9.5059 H       1  UNL1        0.1734
     24 O          22.6643   72.0510   -0.5947 O.3     1  UNL1       -0.2703
     25 P          21.9726   71.5635    0.7739 P.3     1  UNL1        0.2208
     26 O          23.0058   71.4125    1.8221 O.2     1  UNL1       -0.5170
     27 O          21.2429   70.1487    0.5330 O.3     1  UNL1       -0.4371
     28 O          20.8856   72.6529    1.2450 O.3     1  UNL1       -0.2865
     29 C          21.4406   73.9396    0.9663 C.3     1  UNL1        0.2611
     30 C          21.4563   74.7717    2.2498 C.3     1  UNL1        0.1582
     31 C          20.0239   74.9035    2.7792 C.3     1  UNL1        0.1625
     32 C          19.1352   75.4516    1.6576 C.3     1  UNL1        0.1686
     33 C          19.2923   74.5662    0.4196 C.3     1  UNL1        0.1760
     34 O          20.0050   75.8004    3.8912 O.3     1  UNL1       -0.3801
     35 O          17.7709   75.4443    2.0821 O.3     1  UNL1       -0.3794
     36 O          20.6486   74.5930   -0.0233 O.3     1  UNL1       -0.3263
     37 H          19.0874   75.8533    4.1920 H       1  UNL1        0.2105
     38 H          17.2476   75.7954    1.3477 H       1  UNL1        0.2105
     39 C          23.1444   74.8305    4.0051 C.2     1  UNL1        0.2231
     40 C          24.0040   74.1473    5.0378 C.3     1  UNL1        0.0946
     41 N          22.2912   74.1085    3.2534 N.am    1  UNL1       -0.2994
     42 O          23.2211   76.0307    3.8503 O.2     1  UNL1       -0.2751
     43 H          22.2298   73.1480    3.3770 H       1  UNL1        0.1496
     44 C          18.3839   75.0863   -0.6964 C.3     1  UNL1        0.1693
     45 O          17.0579   74.5904   -0.5018 O.3     1  UNL1       -0.3794
     46 H          16.5194   74.9403   -1.2244 H       1  UNL1        0.2105
@<TRIPOS>BOND
     1    29    30    1
     2    29    28    1
     3    29    36    1
     4    30    31    1
     5    30    41    1
     6    31    32    1
     7    31    34    1
     8    32    33    1
     9    32    35    1
    10    33    44    1
    11    33    36    1
    12    44    45    1
    13    39    40    1
    14    39    41   am
    15    39    42    2
    16    41    43    1
    17    28    25    1
    18    34    37    1
    19    35    38    1
    20    45    46    1
    21    15    16   ar
    22    15    20   ar
    23    15     6    1
    24    16    17   ar
    25    16    21    2
    26    17    18   ar
    27    17    23    1
    28    18    19   ar
    29    18    22    2
    30    19    20   ar
    31     6     7    1
    32     6    11    1
    33     7     8    1
    34     7     9    1
    35     8    13    1
    36     9    10    1
    37     9    12    1
    38    10    11    1
    39    10     5    1
    40    12    14    1
    41     5     4    1
    42     4     1    1
    43     1     2    2
    44     1     3    1
    45     1    24    1
    46    24    25    1
    47    25    26    2
    48    25    27    1
@<TRIPOS>MOLECULE
UD1
 46 48 0 0 0
SMALL
GASTEIGER

@<TRIPOS>ATOM
      1 P          22.9463   71.9258   -2.8245 P.3     1  UNL1        0.2189
      2 O          23.4804   70.6846   -3.4269 O.2     1  UNL1       -0.5170
      3 O          23.8586   73.1750   -3.2715 O.3     1  UNL1       -0.4371
      4 O          22.9667   71.7948   -1.2197 O.3     1  UNL1       -0.3112
      5 C          22.9603   73.1236   -0.6958 C.3     1  UNL1        0.1811
      6 C          20.8050   73.9623    2.0571 C.3     1  UNL1        0.2383
      7 C          21.1280   75.3221    1.3888 C.3     1  UNL1        0.1895
      8 O          20.0431   76.2378    1.5426 O.3     1  UNL1       -0.3779
      9 C          21.3061   74.9199   -0.0984 C.3     1  UNL1        0.1713
     10 C          21.6064   73.4095   -0.0443 C.3     1  UNL1        0.1764
     11 O          21.6402   73.0275    1.3414 O.3     1  UNL1       -0.3308
     12 O          20.1057   75.1719   -0.8321 O.3     1  UNL1       -0.3794
     13 H          20.3067   77.0602    1.1072 H       1  UNL1        0.2106
     14 H          19.9401   76.1226   -0.7786 H       1  UNL1        0.2105
     15 N          21.1560   73.9853    3.4776 N.ar    1  UNL1       -0.2551
     16 C          20.2031   73.7778    4.4028 C.ar    1  UNL1        0.3323
     17 N          20.4979   73.7895    5.7163 N.ar    1  UNL1       -0.2743
     18 C          21.7612   74.0203    6.1270 C.ar    1  UNL1        0.2626
     19 C          22.7732   74.2462    5.1638 C.ar    1  UNL1        0.0795
     20 C          22.4507   74.2237    3.8527 C.ar    1  UNL1        0.0869
     21 O          19.0590   73.5682    4.0480 O.2     1  UNL1       -0.2464
     22 O          22.0281   74.0358    7.3144 O.2     1  UNL1       -0.2670
     23 H          19.7989   73.6332    6.3698 H       1  UNL1        0.1734
     24 O          21.4348   72.1578   -3.3246 O.3     1  UNL1       -0.2703
     25 P          21.5257   72.8003   -4.7971 P.3     1  UNL1        0.2208
     26 O          22.8687   72.5469   -5.3636 O.2     1  UNL1       -0.5170
     27 O          21.2729   74.3878   -4.7072 O.3     1  UNL1       -0.4371
     28 O          20.4089   72.1333   -5.7450 O.3     1  UNL1       -0.2865
     29 C          19.2176   72.9063   -5.5890 C.3     1  UNL1        0.2611
     30 C          18.0746   71.9894   -5.1496 C.3     1  UNL1        0.1582
     31 C          17.8757   70.8955   -6.2047 C.3     1  UNL1        0.1625
     32 C          17.6884   71.5616   -7.5719 C.3     1  UNL1        0.1686
     33 C          18.8622   72.5085   -7.8300 C.3     1  UNL1        0.1760
     34 O          16.7175   70.1237   -5.8817 O.3     1  UNL1       -0.3801
     35 O          17.6479   70.5598   -8.5900 O.3     1  UNL1       -0.3794
     36 O          18.8892   73.5266   -6.8303 O.3     1  UNL1       -0.3263
     37 H          16.6306   69.4491   -6.5692 H       1  UNL1        0.2105
     38 H          17.5300   71.0215   -9.4323 H       1  UNL1        0.2105
     39 C          18.9749   70.1544   -3.8242 C.2     1  UNL1        0.2231
     40 C          19.3160   69.5222   -2.4990 C.3     1  UNL1        0.0946
     41 N          18.4067   71.3750   -3.8625 N.am    1  UNL1       -0.2994
     42 O          19.2114   69.5639   -4.8565 O.2     1  UNL1       -0.2751
     43 H          18.2171   71.8477   -3.0365 H       1  UNL1        0.1496
     44 C          18.7014   73.1546   -9.2076 C.3     1  UNL1        0.1693
     45 O          18.8289   72.1549  -10.2208 O.3     1  UNL1       -0.3794
     46 H          18.7218   72.6028  -11.0708 H       1  UNL1        0.2105
@<TRIPOS>BOND
     1    29    30    1
     2    29    28    1
     3    29    36    1
     4    30    31    1
     5    30    41    1
     6    31    32    1
     7    31    34    1
     8    32    33    1
     9    32    35    1
    10    33    44    1
    11    33    36    1
    12    44    45    1
    13    39    40    1
    14    39    41   am
    15    39    42    2
    16    41    43    1
    17    28    25    1
    18    34    37    1
    19    35    38    1
    20    45    46    1
    21    15    16   ar
    22    15    20   ar
    23    15     6    1
    24    16    17   ar
    25    16    21    2
    26    17    18   ar
    27    17    23    1
    28    18    19   ar
    29    18    22    2
    30    19    20   ar
    31     6     7    1
    32     6    11    1
    33     7     8    1
    34     7     9    1
    35     8    13    1
    36     9    10    1
    37     9    12    1
    38    10    11    1
    39    10     5    1
    40    12    14    1
    41     5     4    1
    42     4     1    1
    43     1     2    2
    44     1     3    1
    45     1    24    1
    46    24    25    1
    47    25    26    2
    48    25    27    1
@<TRIPOS>MOLECULE
UD1
 46 48 0 0 0
SMALL
GASTEIGER

@<TRIPOS>ATOM
      1 P          23.1564   73.0362   -3.7886 P.3     1  UNL1        0.2189
      2 O          23.3029   71.6110   -3.4197 O.2     1  UNL1       -0.5170
      3 O          24.6136   73.6928   -3.9835 O.3     1  UNL1       -0.4371
      4 O          22.3702   73.8148   -2.6187 O.3     1  UNL1       -0.3112
      5 C          22.5405   73.0489   -1.4250 C.3     1  UNL1        0.1811
      6 C          20.5634   73.4308    1.5537 C.3     1  UNL1        0.2383
      7 C          20.5181   74.8235    0.8765 C.3     1  UNL1        0.1895
      8 O          19.2868   75.4893    1.1589 O.3     1  UNL1       -0.3779
      9 C          20.6172   74.4577   -0.6274 C.3     1  UNL1        0.1713
     10 C          21.2343   73.0457   -0.6293 C.3     1  UNL1        0.1764
     11 O          21.4961   72.6894    0.7388 O.3     1  UNL1       -0.3308
     12 O          19.3193   74.4443   -1.2256 O.3     1  UNL1       -0.3794
     13 H          19.3224   76.3459    0.7112 H       1  UNL1        0.2106
     14 H          18.9630   75.3386   -1.1398 H       1  UNL1        0.2105
     15 N          21.0513   73.5376    2.9291 N.ar    1  UNL1       -0.2551
     16 C          21.5698   72.4570    3.5381 C.ar    1  UNL1        0.3323
     17 N          22.0298   72.5272    4.8013 N.ar    1  UNL1       -0.2743
     18 C          21.9686   73.6887    5.4831 C.ar    1  UNL1        0.2626
     19 C          21.4197   74.8327    4.8562 C.ar    1  UNL1        0.0795
     20 C          20.9705   74.7356    3.5865 C.ar    1  UNL1        0.0869
     21 O          21.6319   71.4023    2.9361 O.2     1  UNL1       -0.2464
     22 O          22.3798   73.7521    6.6270 O.2     1  UNL1       -0.2670
     23 H          22.4049   71.7389    5.2233 H       1  UNL1        0.1734
     24 O          22.3263   73.1525   -5.1621 O.3     1  UNL1       -0.2703
     25 P          20.7915   72.8246   -4.8068 P.3     1  UNL1        0.2208
     26 O          20.2417   73.9016   -3.9543 O.2     1  UNL1       -0.5170
     27 O          20.7098   71.4230   -4.0187 O.3     1  UNL1       -0.4371
     28 O          19.9342   72.7254   -6.1654 O.3     1  UNL1       -0.2865
     29 C          20.0494   71.3796   -6.6308 C.3     1  UNL1        0.2611
     30 C          20.1425   71.3795   -8.1576 C.3     1  UNL1        0.1582
     31 C          18.8897   72.0468   -8.7363 C.3     1  UNL1        0.1625
     32 C          17.6526   71.3512   -8.1584 C.3     1  UNL1        0.1686
     33 C          17.7459   71.3562   -6.6311 C.3     1  UNL1        0.1760
     34 O          18.8935   71.9198  -10.1594 O.3     1  UNL1       -0.3801
     35 O          16.4759   72.0500   -8.5690 O.3     1  UNL1       -0.3794
     36 O          18.9057   70.6354   -6.2166 O.3     1  UNL1       -0.3263
     37 H          18.0904   72.3524  -10.4806 H       1  UNL1        0.2105
     38 H          15.7227   71.5802   -8.1836 H       1  UNL1        0.2105
     39 C          21.2373   73.4325   -8.8793 C.2     1  UNL1        0.2231
     40 C          22.4623   74.1979   -9.3103 C.3     1  UNL1        0.0946
     41 N          21.3323   72.1236   -8.5760 N.am    1  UNL1       -0.2994
     42 O          20.1656   73.9949   -8.8061 O.2     1  UNL1       -0.2751
     43 H          22.1898   71.6732   -8.6347 H       1  UNL1        0.1496
     44 C          16.4990   70.6924   -6.0431 C.3     1  UNL1        0.1693
     45 O          16.0950   69.6088   -6.8825 O.3     1  UNL1       -0.3794
     46 H          15.3084   69.2192   -6.4774 H       1  UNL1        0.2105
@<TRIPOS>BOND
     1    29    30    1
     2    29    28    1
     3    29    36    1
     4    30    31    1
     5    30    41    1
     6    31    32    1
     7    31    34    1
     8    32    33    1
     9    32    35    1
    10    33    44    1
    11    33    36    1
    12    44    45    1
    13    39    40    1
    14    39    41   am
    15    39    42    2
    16    41    43    1
    17    28    25    1
    18    34    37    1
    19    35    38    1
    20    45    46    1
    21    15    16   ar
    22    15    20   ar
    23    15     6    1
    24    16    17   ar
    25    16    21    2
    26    17    18   ar
    27    17    23    1
    28    18    19   ar
    29    18    22    2
    30    19    20   ar
    31     6     7    1
    32     6    11    1
    33     7     8    1
    34     7     9    1
    35     8    13    1
    36     9    10    1
    37     9    12    1
    38    10    11    1
    39    10     5    1
    40    12    14    1
    41     5     4    1
    42     4     1    1
    43     1     2    2
    44     1     3    1
    45     1    24    1
    46    24    25    1
    47    25    26    2
    48    25    27    1
@<TRIPOS>MOLECULE
UD1
 46 48 0 0 0
SMALL
GASTEIGER

@<TRIPOS>ATOM
      1 P          21.9575   70.8054   -1.8333 P.3     1  UNL1        0.2189
      2 O          21.0736   69.6247   -1.7169 O.2     1  UNL1       -0.5170
      3 O          23.1856   70.6601   -0.8022 O.3     1  UNL1       -0.4371
      4 O          21.1216   72.1372   -1.4865 O.3     1  UNL1       -0.3112
      5 C          21.0171   72.2014   -0.0634 C.3     1  UNL1        0.1811
      6 C          21.7713   74.7161    2.3932 C.3     1  UNL1        0.2383
      7 C          23.1516   74.3049    1.8222 C.3     1  UNL1        0.1895
      8 O          24.0659   75.4012    1.8560 O.3     1  UNL1       -0.3779
      9 C          22.7989   73.9233    0.3610 C.3     1  UNL1        0.1713
     10 C          21.2863   73.6324    0.4047 C.3     1  UNL1        0.1764
     11 O          20.8578   73.7896    1.7681 O.3     1  UNL1       -0.3308
     12 O          23.0804   75.0113   -0.5221 O.3     1  UNL1       -0.3794
     13 H          24.9015   75.0806    1.4893 H       1  UNL1        0.2106
     14 H          24.0294   75.1833   -0.4597 H       1  UNL1        0.2105
     15 N          21.7451   74.5642    3.8484 N.ar    1  UNL1       -0.2551
     16 C          21.7903   73.3350    4.3910 C.ar    1  UNL1        0.3323
     17 N          21.7716   73.1657    5.7264 N.ar    1  UNL1       -0.2743
     18 C          21.6974   74.2338    6.5458 C.ar    1  UNL1        0.2626
     19 C          21.6431   75.5333    5.9878 C.ar    1  UNL1        0.0795
     20 C          21.6688   75.6747    4.6452 C.ar    1  UNL1        0.0869
     21 O          21.8575   72.3618    3.6651 O.2     1  UNL1       -0.2464
     22 O          21.6756   74.0817    7.7532 O.2     1  UNL1       -0.2670
     23 H          21.8098   72.2720    6.1006 H       1  UNL1        0.1734
     24 O          22.5256   70.9045   -3.3354 O.3     1  UNL1       -0.2703
     25 P          22.0267   72.3145   -3.9290 P.3     1  UNL1        0.2208
     26 O          22.6496   72.5408   -5.2517 O.2     1  UNL1       -0.5170
     27 O          22.4522   73.5003   -2.9264 O.3     1  UNL1       -0.4371
     28 O          20.4251   72.2956   -4.0863 O.3     1  UNL1       -0.2865
     29 C          20.1398   71.6933   -5.3500 C.3     1  UNL1        0.2611
     30 C          18.9701   72.4281   -6.0071 C.3     1  UNL1        0.1582
     31 C          17.7488   72.3530   -5.0839 C.3     1  UNL1        0.1625
     32 C          17.4847   70.8834   -4.7392 C.3     1  UNL1        0.1686
     33 C          18.7658   70.2659   -4.1748 C.3     1  UNL1        0.1760
     34 O          16.6109   72.9042   -5.7494 O.3     1  UNL1       -0.3801
     35 O          16.4431   70.8009   -3.7646 O.3     1  UNL1       -0.3794
     36 O          19.8008   70.3219   -5.1558 O.3     1  UNL1       -0.3263
     37 H          15.8677   72.8370   -5.1341 H       1  UNL1        0.2105
     38 H          16.3100   69.8611   -3.5763 H       1  UNL1        0.2105
     39 C          19.6395   74.2607   -7.4658 C.2     1  UNL1        0.2231
     40 C          20.0138   75.7034   -7.6916 C.3     1  UNL1        0.0946
     41 N          19.3333   73.8296   -6.2270 N.am    1  UNL1       -0.2994
     42 O          19.6145   73.4876   -8.3996 O.2     1  UNL1       -0.2751
     43 H          19.3535   74.4480   -5.4796 H       1  UNL1        0.1496
     44 C          18.5036   68.8066   -3.7969 C.3     1  UNL1        0.1693
     45 O          18.2536   68.7153   -2.3929 O.3     1  UNL1       -0.3794
     46 H          18.0940   67.7821   -2.1972 H       1  UNL1        0.2105
@<TRIPOS>BOND
     1    29    30    1
     2    29    28    1
     3    29    36    1
     4    30    31    1
     5    30    41    1
     6    31    32    1
     7    31    34    1
     8    32    33    1
     9    32    35    1
    10    33    44    1
    11    33    36    1
    12    44    45    1
    13    39    40    1
    14    39    41   am
    15    39    42    2
    16    41    43    1
    17    28    25    1
    18    34    37    1
    19    35    38    1
    20    45    46    1
    21    15    16   ar
    22    15    20   ar
    23    15     6    1
    24    16    17   ar
    25    16    21    2
    26    17    18   ar
    27    17    23    1
    28    18    19   ar
    29    18    22    2
    30    19    20   ar
    31     6     7    1
    32     6    11    1
    33     7     8    1
    34     7     9    1
    35     8    13    1
    36     9    10    1
    37     9    12    1
    38    10    11    1
    39    10     5    1
    40    12    14    1
    41     5     4    1
    42     4     1    1
    43     1     2    2
    44     1     3    1
    45     1    24    1
    46    24    25    1
    47    25    26    2
    48    25    27    1
@<TRIPOS>MOLECULE
UD1
 46 48 0 0 0
SMALL
GASTEIGER

@<TRIPOS>ATOM
      1 P          21.7251   71.2294   -0.5050 P.3     1  UNL1        0.2189
      2 O          23.1508   71.1432   -0.1194 O.2     1  UNL1       -0.5170
      3 O          21.0341   69.7853   -0.3325 O.3     1  UNL1       -0.4371
      4 O          21.6128   71.6967   -2.0419 O.3     1  UNL1       -0.3112
      5 C          21.0245   70.6126   -2.7622 C.3     1  UNL1        0.1811
      6 C          18.4497   70.9521   -5.2486 C.3     1  UNL1        0.2383
      7 C          18.1486   69.5971   -4.5606 C.3     1  UNL1        0.1895
      8 O          16.7476   69.3207   -4.5671 O.3     1  UNL1       -0.3779
      9 C          18.6569   69.8451   -3.1165 C.3     1  UNL1        0.1713
     10 C          19.6389   71.0237   -3.2625 C.3     1  UNL1        0.1764
     11 O          19.7030   71.3589   -4.6592 O.3     1  UNL1       -0.3308
     12 O          17.5701   70.1947   -2.2566 O.3     1  UNL1       -0.3794
     13 H          16.6282   68.4678   -4.1269 H       1  UNL1        0.2106
     14 H          16.9630   69.4427   -2.2541 H       1  UNL1        0.2105
     15 N          18.5913   70.7801   -6.6949 N.ar    1  UNL1       -0.2551
     16 C          17.4937   70.7059   -7.4677 C.ar    1  UNL1        0.3323
     17 N          17.5940   70.5517   -8.8013 N.ar    1  UNL1       -0.2743
     18 C          18.8057   70.4595   -9.3854 C.ar    1  UNL1        0.2626
     19 C          19.9694   70.5301   -8.5830 C.ar    1  UNL1        0.0795
     20 C          19.8400   70.6903   -7.2485 C.ar    1  UNL1        0.0869
     21 O          16.3938   70.7875   -6.9556 O.2     1  UNL1       -0.2464
     22 O          18.8975   70.3152  -10.5904 O.2     1  UNL1       -0.2670
     23 H          16.7918   70.5049   -9.3439 H       1  UNL1        0.1734
     24 O          20.9780   72.2989    0.4368 O.3     1  UNL1       -0.2703
     25 P          21.8400   73.6562    0.3735 P.3     1  UNL1        0.2208
     26 O          22.8503   73.6496    1.4543 O.2     1  UNL1       -0.5170
     27 O          20.8633   74.9223    0.5607 O.3     1  UNL1       -0.4371
     28 O          22.5802   73.7574   -1.0521 O.3     1  UNL1       -0.2865
     29 C          22.4890   75.1204   -1.4706 C.3     1  UNL1        0.2611
     30 C          22.1833   75.1693   -2.9687 C.3     1  UNL1        0.1582
     31 C          23.2966   74.4424   -3.7314 C.3     1  UNL1        0.1625
     32 C          24.6451   75.0435   -3.3211 C.3     1  UNL1        0.1686
     33 C          24.7663   75.0012   -1.7964 C.3     1  UNL1        0.1760
     34 O          23.1019   74.6094   -5.1370 O.3     1  UNL1       -0.3801
     35 O          25.7046   74.2851   -3.9074 O.3     1  UNL1       -0.3794
     36 O          23.7255   75.7804   -1.2081 O.3     1  UNL1       -0.3263
     37 H          23.8223   74.1373   -5.5768 H       1  UNL1        0.2105
     38 H          26.5333   74.6963   -3.6234 H       1  UNL1        0.2105
     39 C          19.8242   75.2460   -3.5710 C.2     1  UNL1        0.2231
     40 C          18.5040   74.5692   -3.8381 C.3     1  UNL1        0.0946
     41 N          20.9007   74.5124   -3.2287 N.am    1  UNL1       -0.2994
     42 O          19.9173   76.4513   -3.6636 O.2     1  UNL1       -0.2751
     43 H          20.8264   73.5477   -3.1543 H       1  UNL1        0.1496
     44 C          26.1238   75.5697   -1.3780 C.3     1  UNL1        0.1693
     45 O          26.2089   75.6002    0.0482 O.3     1  UNL1       -0.3794
     46 H          27.0768   75.9642    0.2690 H       1  UNL1        0.2105
@<TRIPOS>BOND
     1    29    30    1
     2    29    28    1
     3    29    36    1
     4    30    31    1
     5    30    41    1
     6    31    32    1
     7    31    34    1
     8    32    33    1
     9    32    35    1
    10    33    44    1
    11    33    36    1
    12    44    45    1
    13    39    40    1
    14    39    41   am
    15    39    42    2
    16    41    43    1
    17    28    25    1
    18    34    37    1
    19    35    38    1
    20    45    46    1
    21    15    16   ar
    22    15    20   ar
    23    15     6    1
    24    16    17   ar
    25    16    21    2
    26    17    18   ar
    27    17    23    1
    28    18    19   ar
    29    18    22    2
    30    19    20   ar
    31     6     7    1
    32     6    11    1
    33     7     8    1
    34     7     9    1
    35     8    13    1
    36     9    10    1
    37     9    12    1
    38    10    11    1
    39    10     5    1
    40    12    14    1
    41     5     4    1
    42     4     1    1
    43     1     2    2
    44     1     3    1
    45     1    24    1
    46    24    25    1
    47    25    26    2
    48    25    27    1
@<TRIPOS>MOLECULE
UD1
 46 48 0 0 0
SMALL
GASTEIGER

@<TRIPOS>ATOM
      1 P          21.9517   70.3872   -0.3028 P.3     1  UNL1        0.2189
      2 O          22.8091   71.3335   -1.0499 O.2     1  UNL1       -0.5170
      3 O          22.8444   69.1549    0.2236 O.3     1  UNL1       -0.4371
      4 O          20.7927   69.8329   -1.2734 O.3     1  UNL1       -0.3112
      5 C          20.9770   70.4649   -2.5411 C.3     1  UNL1        0.1811
      6 C          18.4662   71.0069   -5.0570 C.3     1  UNL1        0.2383
      7 C          18.0576   69.6738   -4.3816 C.3     1  UNL1        0.1895
      8 O          16.6403   69.5012   -4.4074 O.3     1  UNL1       -0.3779
      9 C          18.5642   69.8756   -2.9298 C.3     1  UNL1        0.1713
     10 C          19.6318   70.9796   -3.0558 C.3     1  UNL1        0.1764
     11 O          19.7383   71.3171   -4.4494 O.3     1  UNL1       -0.3308
     12 O          17.4950   70.2993   -2.0811 O.3     1  UNL1       -0.3794
     13 H          16.4529   68.6569   -3.9743 H       1  UNL1        0.2106
     14 H          16.8343   69.5939   -2.0911 H       1  UNL1        0.2105
     15 N          18.6133   70.8331   -6.5025 N.ar    1  UNL1       -0.2551
     16 C          17.5212   70.8181   -7.2863 C.ar    1  UNL1        0.3323
     17 N          17.6269   70.6638   -8.6195 N.ar    1  UNL1       -0.2743
     18 C          18.8381   70.5117   -9.1920 C.ar    1  UNL1        0.2626
     19 C          19.9957   70.5196   -8.3779 C.ar    1  UNL1        0.0795
     20 C          19.8613   70.6814   -7.0441 C.ar    1  UNL1        0.0869
     21 O          16.4219   70.9542   -6.7848 O.2     1  UNL1       -0.2464
     22 O          18.9345   70.3673  -10.3967 O.2     1  UNL1       -0.2670
     23 H          16.8289   70.6602   -9.1702 H       1  UNL1        0.1734
     24 O          21.2850   71.1426    0.9517 O.3     1  UNL1       -0.2703
     25 P          21.5333   72.7172    0.7317 P.3     1  UNL1        0.2208
     26 O          22.9660   73.0240    0.9370 O.2     1  UNL1       -0.5170
     27 O          20.6498   73.5531    1.7867 O.3     1  UNL1       -0.4371
     28 O          21.1065   73.1250   -0.7656 O.3     1  UNL1       -0.2865
     29 C          21.3398   74.5286   -0.8954 C.3     1  UNL1        0.2611
     30 C          20.0899   75.1972   -1.4705 C.3     1  UNL1        0.1582
     31 C          19.7700   74.5736   -2.8337 C.3     1  UNL1        0.1625
     32 C          21.0195   74.6581   -3.7167 C.3     1  UNL1        0.1686
     33 C          22.1988   74.0272   -2.9732 C.3     1  UNL1        0.1760
     34 O          18.6965   75.2892   -3.4476 O.3     1  UNL1       -0.3801
     35 O          20.7903   73.9528   -4.9380 O.3     1  UNL1       -0.3794
     36 O          22.4479   74.7463   -1.7660 O.3     1  UNL1       -0.3263
     37 H          18.5287   74.8641   -4.2999 H       1  UNL1        0.2105
     38 H          21.6000   74.0305   -5.4622 H       1  UNL1        0.2105
     39 C          18.4486   76.0325    0.1241 C.2     1  UNL1        0.2231
     40 C          17.2873   75.8204    1.0615 C.3     1  UNL1        0.0946
     41 N          18.9615   74.9918   -0.5601 N.am    1  UNL1       -0.2994
     42 O          18.9219   77.1403   -0.0139 O.2     1  UNL1       -0.2751
     43 H          18.5831   74.1051   -0.4497 H       1  UNL1        0.1496
     44 C          23.4447   74.0773   -3.8598 C.3     1  UNL1        0.1693
     45 O          23.6298   72.8102   -4.4941 O.3     1  UNL1       -0.3794
     46 H          24.4232   72.8845   -5.0415 H       1  UNL1        0.2105
@<TRIPOS>BOND
     1    29    30    1
     2    29    28    1
     3    29    36    1
     4    30    31    1
     5    30    41    1
     6    31    32    1
     7    31    34    1
     8    32    33    1
     9    32    35    1
    10    33    44    1
    11    33    36    1
    12    44    45    1
    13    39    40    1
    14    39    41   am
    15    39    42    2
    16    41    43    1
    17    28    25    1
    18    34    37    1
    19    35    38    1
    20    45    46    1
    21    15    16   ar
    22    15    20   ar
    23    15     6    1
    24    16    17   ar
    25    16    21    2
    26    17    18   ar
    27    17    23    1
    28    18    19   ar
    29    18    22    2
    30    19    20   ar
    31     6     7    1
    32     6    11    1
    33     7     8    1
    34     7     9    1
    35     8    13    1
    36     9    10    1
    37     9    12    1
    38    10    11    1
    39    10     5    1
    40    12    14    1
    41     5     4    1
    42     4     1    1
    43     1     2    2
    44     1     3    1
    45     1    24    1
    46    24    25    1
    47    25    26    2
    48    25    27    1
@<TRIPOS>MOLECULE
UD1
 46 48 0 0 0
SMALL
GASTEIGER

@<TRIPOS>ATOM
      1 P          21.9244   70.8343   -2.7864 P.3     1  UNL1        0.2189
      2 O          21.5245   69.5876   -2.0976 O.2     1  UNL1       -0.5170
      3 O          23.4628   70.7225   -3.2484 O.3     1  UNL1       -0.4371
      4 O          21.7565   72.0802   -1.7802 O.3     1  UNL1       -0.3112
      5 C          22.4176   71.7231   -0.5654 C.3     1  UNL1        0.1811
      6 C          22.4289   73.8820    2.3098 C.3     1  UNL1        0.2383
      7 C          22.0949   74.8190    1.1221 C.3     1  UNL1        0.1895
      8 O          21.2605   75.8990    1.5420 O.3     1  UNL1       -0.3779
      9 C          21.3305   73.8696    0.1632 C.3     1  UNL1        0.1713
     10 C          21.7664   72.4596    0.6063 C.3     1  UNL1        0.1764
     11 O          22.7174   72.6192    1.6727 O.3     1  UNL1       -0.3308
     12 O          19.9191   74.0349    0.3155 O.3     1  UNL1       -0.3794
     13 H          21.0908   76.4425    0.7601 H       1  UNL1        0.2106
     14 H          19.7183   74.9508    0.0812 H       1  UNL1        0.2105
     15 N          23.5978   74.3692    3.0430 N.ar    1  UNL1       -0.2551
     16 C          23.7463   74.0583    4.3425 C.ar    1  UNL1        0.3323
     17 N          24.8135   74.4894    5.0408 N.ar    1  UNL1       -0.2743
     18 C          25.7518   75.2529    4.4453 C.ar    1  UNL1        0.2626
     19 C          25.6049   75.5926    3.0793 C.ar    1  UNL1        0.0795
     20 C          24.5274   75.1423    2.4013 C.ar    1  UNL1        0.0869
     21 O          22.9085   73.3706    4.8936 O.2     1  UNL1       -0.2464
     22 O          26.7146   75.6472    5.0769 O.2     1  UNL1       -0.2670
     23 H          24.9069   74.2517    5.9761 H       1  UNL1        0.1734
     24 O          20.9902   71.0577   -4.0773 O.3     1  UNL1       -0.2703
     25 P          19.5744   70.3659   -3.7518 P.3     1  UNL1        0.2208
     26 O          19.0396   70.9097   -2.4841 O.2     1  UNL1       -0.5170
     27 O          19.7737   68.7745   -3.6104 O.3     1  UNL1       -0.4371
     28 O          18.5392   70.6716   -4.9457 O.3     1  UNL1       -0.2865
     29 C          18.9778   71.8762   -5.5763 C.3     1  UNL1        0.2611
     30 C          17.8266   72.8834   -5.5973 C.3     1  UNL1        0.1582
     31 C          16.6423   72.2752   -6.3569 C.3     1  UNL1        0.1625
     32 C          17.1290   71.8125   -7.7343 C.3     1  UNL1        0.1686
     33 C          18.3311   70.8835   -7.5519 C.3     1  UNL1        0.1760
     34 O          15.6176   73.2586   -6.5129 O.3     1  UNL1       -0.3801
     35 O          16.0781   71.1112   -8.4017 O.3     1  UNL1       -0.3794
     36 O          19.3926   71.5890   -6.9100 O.3     1  UNL1       -0.3263
     37 H          14.8940   72.8342   -6.9942 H       1  UNL1        0.2105
     38 H          16.4267   70.8377   -9.2621 H       1  UNL1        0.2105
     39 C          16.3818   72.5455   -3.6653 C.2     1  UNL1        0.2231
     40 C          15.9652   72.8654   -2.2523 C.3     1  UNL1        0.0946
     41 N          17.4219   73.1934   -4.2245 N.am    1  UNL1       -0.2994
     42 O          15.7801   71.7052   -4.2992 O.2     1  UNL1       -0.2751
     43 H          17.9034   73.8661   -3.7175 H       1  UNL1        0.1496
     44 C          18.8048   70.3898   -8.9205 C.3     1  UNL1        0.1693
     45 O          18.5859   71.4097   -9.8971 O.3     1  UNL1       -0.3794
     46 H          18.8969   71.0589  -10.7426 H       1  UNL1        0.2105
@<TRIPOS>BOND
     1    29    30    1
     2    29    28    1
     3    29    36    1
     4    30    31    1
     5    30    41    1
     6    31    32    1
     7    31    34    1
     8    32    33    1
     9    32    35    1
    10    33    44    1
    11    33    36    1
    12    44    45    1
    13    39    40    1
    14    39    41   am
    15    39    42    2
    16    41    43    1
    17    28    25    1
    18    34    37    1
    19    35    38    1
    20    45    46    1
    21    15    16   ar
    22    15    20   ar
    23    15     6    1
    24    16    17   ar
    25    16    21    2
    26    17    18   ar
    27    17    23    1
    28    18    19   ar
    29    18    22    2
    30    19    20   ar
    31     6     7    1
    32     6    11    1
    33     7     8    1
    34     7     9    1
    35     8    13    1
    36     9    10    1
    37     9    12    1
    38    10    11    1
    39    10     5    1
    40    12    14    1
    41     5     4    1
    42     4     1    1
    43     1     2    2
    44     1     3    1
    45     1    24    1
    46    24    25    1
    47    25    26    2
    48    25    27    1
@<TRIPOS>MOLECULE
UD1
 46 48 0 0 0
SMALL
GASTEIGER

@<TRIPOS>ATOM
      1 P          19.5404   69.7364   -3.6354 P.3     1  UNL1        0.2189
      2 O          18.8526   68.4353   -3.4854 O.2     1  UNL1       -0.5170
      3 O          18.8621   70.8184   -2.6547 O.3     1  UNL1       -0.4371
      4 O          19.4100   70.2391   -5.1596 O.3     1  UNL1       -0.3112
      5 C          18.0152   70.2745   -5.4658 C.3     1  UNL1        0.1811
      6 C          18.9493   72.9159   -7.7192 C.3     1  UNL1        0.2383
      7 C          18.7164   71.6884   -8.6353 C.3     1  UNL1        0.1895
      8 O          18.2476   72.0927   -9.9222 O.3     1  UNL1       -0.3779
      9 C          17.6174   70.9112   -7.8651 C.3     1  UNL1        0.1713
     10 C          17.7309   71.4352   -6.4204 C.3     1  UNL1        0.1764
     11 O          18.8203   72.3730   -6.3879 O.3     1  UNL1       -0.3308
     12 O          16.3271   71.1988   -8.4084 O.3     1  UNL1       -0.3794
     13 H          18.1236   71.2861  -10.4412 H       1  UNL1        0.2106
     14 H          16.3391   70.9025   -9.3283 H       1  UNL1        0.2105
     15 N          20.2884   73.4697   -7.9232 N.ar    1  UNL1       -0.2551
     16 C          21.3555   72.6520   -7.9177 C.ar    1  UNL1        0.3323
     17 N          22.5984   73.1332   -8.1067 N.ar    1  UNL1       -0.2743
     18 C          22.7943   74.4536   -8.2967 C.ar    1  UNL1        0.2626
     19 C          21.6803   75.3265   -8.2989 C.ar    1  UNL1        0.0795
     20 C          20.4441   74.8165   -8.1122 C.ar    1  UNL1        0.0869
     21 O          21.1950   71.4587   -7.7477 O.2     1  UNL1       -0.2464
     22 O          23.9181   74.8904   -8.4629 O.2     1  UNL1       -0.2670
     23 H          23.3562   72.5283   -8.1044 H       1  UNL1        0.1734
     24 O          21.0953   69.5683   -3.2573 O.3     1  UNL1       -0.2703
     25 P          21.7341   71.0452   -3.2493 P.3     1  UNL1        0.2208
     26 O          21.3689   71.7472   -4.4993 O.2     1  UNL1       -0.5170
     27 O          23.3370   70.9368   -3.1442 O.3     1  UNL1       -0.4371
     28 O          21.1695   71.8687   -1.9869 O.3     1  UNL1       -0.2865
     29 C          21.9081   73.0901   -1.9249 C.3     1  UNL1        0.2611
     30 C          22.1336   73.4701   -0.4604 C.3     1  UNL1        0.1582
     31 C          20.7749   73.6235    0.2326 C.3     1  UNL1        0.1625
     32 C          19.9224   74.6095   -0.5731 C.3     1  UNL1        0.1686
     33 C          19.8612   74.1417   -2.0287 C.3     1  UNL1        0.1760
     34 O          20.9668   74.1227    1.5575 O.3     1  UNL1       -0.3801
     35 O          18.6022   74.6557   -0.0285 O.3     1  UNL1       -0.3794
     36 O          21.1756   74.1208   -2.5840 O.3     1  UNL1       -0.3263
     37 H          20.0891   74.2033    1.9555 H       1  UNL1        0.2105
     38 H          18.1004   75.2860   -0.5646 H       1  UNL1        0.2105
     39 C          22.2749   71.4308    0.8645 C.2     1  UNL1        0.2231
     40 C          23.0723   70.3503    1.5494 C.3     1  UNL1        0.0946
     41 N          22.9077   72.4200    0.2047 N.am    1  UNL1       -0.2994
     42 O          21.0634   71.4101    0.9080 O.2     1  UNL1       -0.2751
     43 H          23.8772   72.4368    0.1699 H       1  UNL1        0.1496
     44 C          18.9849   75.1023   -2.8353 C.3     1  UNL1        0.1693
     45 O          19.2484   76.4458   -2.4260 O.3     1  UNL1       -0.3794
     46 H          18.6772   77.0172   -2.9569 H       1  UNL1        0.2105
@<TRIPOS>BOND
     1    29    30    1
     2    29    28    1
     3    29    36    1
     4    30    31    1
     5    30    41    1
     6    31    32    1
     7    31    34    1
     8    32    33    1
     9    32    35    1
    10    33    44    1
    11    33    36    1
    12    44    45    1
    13    39    40    1
    14    39    41   am
    15    39    42    2
    16    41    43    1
    17    28    25    1
    18    34    37    1
    19    35    38    1
    20    45    46    1
    21    15    16   ar
    22    15    20   ar
    23    15     6    1
    24    16    17   ar
    25    16    21    2
    26    17    18   ar
    27    17    23    1
    28    18    19   ar
    29    18    22    2
    30    19    20   ar
    31     6     7    1
    32     6    11    1
    33     7     8    1
    34     7     9    1
    35     8    13    1
    36     9    10    1
    37     9    12    1
    38    10    11    1
    39    10     5    1
    40    12    14    1
    41     5     4    1
    42     4     1    1
    43     1     2    2
    44     1     3    1
    45     1    24    1
    46    24    25    1
    47    25    26    2
    48    25    27    1
@<TRIPOS>MOLECULE
UD1
 46 48 0 0 0
SMALL
GASTEIGER

@<TRIPOS>ATOM
      1 P          21.8395   70.8916   -2.9211 P.3     1  UNL1        0.2189
      2 O          21.3710   69.6440   -2.2786 O.2     1  UNL1       -0.5170
      3 O          23.4148   70.7756   -3.2333 O.3     1  UNL1       -0.4371
      4 O          21.5797   72.1347   -1.9312 O.3     1  UNL1       -0.3112
      5 C          22.4365   71.9515   -0.8031 C.3     1  UNL1        0.1811
      6 C          22.4125   73.8525    2.2487 C.3     1  UNL1        0.2383
      7 C          22.0059   74.8706    1.1539 C.3     1  UNL1        0.1895
      8 O          21.1307   75.8675    1.6827 O.3     1  UNL1       -0.3779
      9 C          21.2653   73.9704    0.1310 C.3     1  UNL1        0.1713
     10 C          21.7788   72.5509    0.4408 C.3     1  UNL1        0.1764
     11 O          22.7461   72.6653    1.4984 O.3     1  UNL1       -0.3308
     12 O          19.8516   74.0514    0.3246 O.3     1  UNL1       -0.3794
     13 H          20.9167   76.4671    0.9546 H       1  UNL1        0.2106
     14 H          19.6016   74.9729    0.1751 H       1  UNL1        0.2105
     15 N          23.5737   74.3324    2.9987 N.ar    1  UNL1       -0.2551
     16 C          23.7157   73.9978    4.2930 C.ar    1  UNL1        0.3323
     17 N          24.7758   74.4216    5.0063 N.ar    1  UNL1       -0.2743
     18 C          25.7134   75.2016    4.4316 C.ar    1  UNL1        0.2626
     19 C          25.5733   75.5664    3.0714 C.ar    1  UNL1        0.0795
     20 C          24.5030   75.1229    2.3779 C.ar    1  UNL1        0.0869
     21 O          22.8784   73.2948    4.8254 O.2     1  UNL1       -0.2464
     22 O          26.6698   75.5894    5.0769 O.2     1  UNL1       -0.2670
     23 H          24.8646   74.1667    5.9376 H       1  UNL1        0.1734
     24 O          21.0347   71.1227   -4.2951 O.3     1  UNL1       -0.2703
     25 P          19.5032   70.7193   -4.0103 P.3     1  UNL1        0.2208
     26 O          19.1353   71.1202   -2.6345 O.2     1  UNL1       -0.5170
     27 O          19.3285   69.1267   -4.1692 O.3     1  UNL1       -0.4371
     28 O          18.5445   71.4705   -5.0625 O.3     1  UNL1       -0.2865
     29 C          17.3744   70.6635   -5.2065 C.3     1  UNL1        0.2611
     30 C          16.8811   70.7427   -6.6523 C.3     1  UNL1        0.1582
     31 C          16.5762   72.2045   -6.9985 C.3     1  UNL1        0.1625
     32 C          15.6114   72.7659   -5.9486 C.3     1  UNL1        0.1686
     33 C          16.2022   72.5367   -4.5558 C.3     1  UNL1        0.1760
     34 O          15.9747   72.2747   -8.2925 O.3     1  UNL1       -0.3801
     35 O          15.4290   74.1661   -6.1674 O.3     1  UNL1       -0.3794
     36 O          16.3602   71.1376   -4.3234 O.3     1  UNL1       -0.3263
     37 H          15.8005   73.2095   -8.4694 H       1  UNL1        0.2105
     38 H          14.8170   74.4783   -5.4859 H       1  UNL1        0.2105
     39 C          18.8095   71.0764   -8.1028 C.2     1  UNL1        0.2231
     40 C          19.8753   70.5494   -9.0295 C.3     1  UNL1        0.0946
     41 N          17.9169   70.2312   -7.5521 N.am    1  UNL1       -0.2994
     42 O          18.7550   72.2617   -7.8533 O.2     1  UNL1       -0.2751
     43 H          17.9602   69.2826   -7.7518 H       1  UNL1        0.1496
     44 C          15.2612   73.1230   -3.5013 C.3     1  UNL1        0.1693
     45 O          13.9063   72.9431   -3.9185 O.3     1  UNL1       -0.3794
     46 H          13.3479   73.3255   -3.2282 H       1  UNL1        0.2105
@<TRIPOS>BOND
     1    29    30    1
     2    29    28    1
     3    29    36    1
     4    30    31    1
     5    30    41    1
     6    31    32    1
     7    31    34    1
     8    32    33    1
     9    32    35    1
    10    33    44    1
    11    33    36    1
    12    44    45    1
    13    39    40    1
    14    39    41   am
    15    39    42    2
    16    41    43    1
    17    28    25    1
    18    34    37    1
    19    35    38    1
    20    45    46    1
    21    15    16   ar
    22    15    20   ar
    23    15     6    1
    24    16    17   ar
    25    16    21    2
    26    17    18   ar
    27    17    23    1
    28    18    19   ar
    29    18    22    2
    30    19    20   ar
    31     6     7    1
    32     6    11    1
    33     7     8    1
    34     7     9    1
    35     8    13    1
    36     9    10    1
    37     9    12    1
    38    10    11    1
    39    10     5    1
    40    12    14    1
    41     5     4    1
    42     4     1    1
    43     1     2    2
    44     1     3    1
    45     1    24    1
    46    24    25    1
    47    25    26    2
    48    25    27    1
@<TRIPOS>MOLECULE
UD1
 46 48 0 0 0
SMALL
GASTEIGER

@<TRIPOS>ATOM
      1 P          20.3816   69.9940   -2.2165 P.3     1  UNL1        0.2189
      2 O          21.6059   69.5997   -2.9474 O.2     1  UNL1       -0.5170
      3 O          19.2283   68.8997   -2.4717 O.3     1  UNL1       -0.4371
      4 O          19.8822   71.4313   -2.7432 O.3     1  UNL1       -0.3112
      5 C          19.6726   71.3064   -4.1506 C.3     1  UNL1        0.1811
      6 C          16.7809   71.9424   -6.1905 C.3     1  UNL1        0.2383
      7 C          17.1497   70.4675   -6.4889 C.3     1  UNL1        0.1895
      8 O          15.9858   69.7040   -6.8074 O.3     1  UNL1       -0.3779
      9 C          17.7626   70.0060   -5.1411 C.3     1  UNL1        0.1713
     10 C          18.1722   71.3193   -4.4469 C.3     1  UNL1        0.1764
     11 O          17.8608   72.3964   -5.3470 O.3     1  UNL1       -0.3308
     12 O          16.7904   69.3037   -4.3638 O.3     1  UNL1       -0.3794
     13 H          16.2827   68.8003   -6.9822 H       1  UNL1        0.2106
     14 H          16.5312   68.5266   -4.8767 H       1  UNL1        0.2105
     15 N          16.7272   72.7246   -7.4261 N.ar    1  UNL1       -0.2551
     16 C          17.7765   72.7158   -8.2664 C.ar    1  UNL1        0.3323
     17 N          17.7532   73.4227   -9.4118 N.ar    1  UNL1       -0.2743
     18 C          16.6727   74.1630   -9.7315 C.ar    1  UNL1        0.2626
     19 C          15.5633   74.1860   -8.8530 C.ar    1  UNL1        0.0795
     20 C          15.6112   73.4634   -7.7133 C.ar    1  UNL1        0.0869
     21 O          18.7583   72.0529   -7.9919 O.2     1  UNL1       -0.2464
     22 O          16.6524   74.8063  -10.7645 O.2     1  UNL1       -0.2670
     23 H          18.5172   73.4010  -10.0085 H       1  UNL1        0.1734
     24 O          20.7011   70.0810   -0.6420 O.3     1  UNL1       -0.2703
     25 P          22.2540   70.4798   -0.5041 P.3     1  UNL1        0.2208
     26 O          22.8183   70.7366   -1.8474 O.2     1  UNL1       -0.5170
     27 O          23.0589   69.2724    0.1934 O.3     1  UNL1       -0.4371
     28 O          22.3909   71.8057    0.3979 O.3     1  UNL1       -0.2865
     29 C          21.0795   72.1261    0.8656 C.3     1  UNL1        0.2611
     30 C          20.7558   73.5774    0.5067 C.3     1  UNL1        0.1582
     31 C          21.7995   74.4975    1.1499 C.3     1  UNL1        0.1625
     32 C          21.8608   74.1952    2.6508 C.3     1  UNL1        0.1686
     33 C          22.1043   72.6975    2.8480 C.3     1  UNL1        0.1760
     34 O          21.4249   75.8614    0.9477 O.3     1  UNL1       -0.3801
     35 O          22.9284   74.9365    3.2444 O.3     1  UNL1       -0.3794
     36 O          21.0259   71.9549    2.2802 O.3     1  UNL1       -0.3263
     37 H          22.1072   76.4037    1.3668 H       1  UNL1        0.2105
     38 H          22.9316   74.7165    4.1868 H       1  UNL1        0.2105
     39 C          21.9163   74.1545   -1.5560 C.2     1  UNL1        0.2231
     40 C          21.9483   74.3233   -3.0536 C.3     1  UNL1        0.0946
     41 N          20.7876   73.7411   -0.9482 N.am    1  UNL1       -0.2994
     42 O          22.9066   74.3916   -0.8978 O.2     1  UNL1       -0.2751
     43 H          19.9949   73.5515   -1.4747 H       1  UNL1        0.1496
     44 C          22.1996   72.3901    4.3438 C.3     1  UNL1        0.1693
     45 O          21.1742   73.0988    5.0425 O.3     1  UNL1       -0.3794
     46 H          21.2698   72.8782    5.9789 H       1  UNL1        0.2105
@<TRIPOS>BOND
     1    29    30    1
     2    29    28    1
     3    29    36    1
     4    30    31    1
     5    30    41    1
     6    31    32    1
     7    31    34    1
     8    32    33    1
     9    32    35    1
    10    33    44    1
    11    33    36    1
    12    44    45    1
    13    39    40    1
    14    39    41   am
    15    39    42    2
    16    41    43    1
    17    28    25    1
    18    34    37    1
    19    35    38    1
    20    45    46    1
    21    15    16   ar
    22    15    20   ar
    23    15     6    1
    24    16    17   ar
    25    16    21    2
    26    17    18   ar
    27    17    23    1
    28    18    19   ar
    29    18    22    2
    30    19    20   ar
    31     6     7    1
    32     6    11    1
    33     7     8    1
    34     7     9    1
    35     8    13    1
    36     9    10    1
    37     9    12    1
    38    10    11    1
    39    10     5    1
    40    12    14    1
    41     5     4    1
    42     4     1    1
    43     1     2    2
    44     1     3    1
    45     1    24    1
    46    24    25    1
    47    25    26    2
    48    25    27    1
@<TRIPOS>MOLECULE
UD1
 46 48 0 0 0
SMALL
GASTEIGER

@<TRIPOS>ATOM
      1 P          18.2439   70.7194   -2.8775 P.3     1  UNL1        0.2189
      2 O          16.9414   71.2655   -2.4371 O.2     1  UNL1       -0.5170
      3 O          18.2559   69.1233   -2.6656 O.3     1  UNL1       -0.4371
      4 O          19.4254   71.3839   -2.0084 O.3     1  UNL1       -0.3112
      5 C          20.1694   72.2221   -2.8939 C.3     1  UNL1        0.1811
      6 C          22.7335   72.3891   -0.3790 C.3     1  UNL1        0.2383
      7 C          22.6199   70.8816   -0.7181 C.3     1  UNL1        0.1895
      8 O          23.8768   70.2243   -0.5523 O.3     1  UNL1       -0.3779
      9 C          22.2053   70.9143   -2.2121 C.3     1  UNL1        0.1713
     10 C          21.6154   72.3245   -2.4062 C.3     1  UNL1        0.1764
     11 O          21.6553   72.9863   -1.1303 O.3     1  UNL1       -0.3308
     12 O          23.3455   70.7219   -3.0521 O.3     1  UNL1       -0.3794
     13 H          23.7382   69.2940   -0.7775 H       1  UNL1        0.2106
     14 H          23.7034   69.8492   -2.8416 H       1  UNL1        0.2105
     15 N          22.5497   72.6141    1.0552 N.ar    1  UNL1       -0.2551
     16 C          21.9511   71.6732    1.8060 C.ar    1  UNL1        0.3323
     17 N          21.7723   71.8516    3.1283 N.ar    1  UNL1       -0.2743
     18 C          22.1857   72.9891    3.7225 C.ar    1  UNL1        0.2626
     19 C          22.8120   73.9905    2.9429 C.ar    1  UNL1        0.0795
     20 C          22.9835   73.7833    1.6196 C.ar    1  UNL1        0.0869
     21 O          21.5728   70.6418    1.2846 O.2     1  UNL1       -0.2464
     22 O          22.0203   73.1535    4.9170 O.2     1  UNL1       -0.2670
     23 H          21.3429   71.1603    3.6554 H       1  UNL1        0.1734
     24 O          18.4685   71.0568   -4.4346 O.3     1  UNL1       -0.2703
     25 P          17.0251   70.9740   -5.1410 P.3     1  UNL1        0.2208
     26 O          16.0072   71.5814   -4.2557 O.2     1  UNL1       -0.5170
     27 O          16.6476   69.4327   -5.4132 O.3     1  UNL1       -0.4371
     28 O          17.0641   71.7704   -6.5392 O.3     1  UNL1       -0.2865
     29 C          18.0666   72.7804   -6.4130 C.3     1  UNL1        0.2611
     30 C          17.6049   74.0441   -7.1411 C.3     1  UNL1        0.1582
     31 C          17.3559   73.7100   -8.6162 C.3     1  UNL1        0.1625
     32 C          18.6152   73.0509   -9.1888 C.3     1  UNL1        0.1686
     33 C          18.9990   71.8602   -8.3078 C.3     1  UNL1        0.1760
     34 O          17.0693   74.9098   -9.3371 O.3     1  UNL1       -0.3801
     35 O          18.3554   72.5989  -10.5191 O.3     1  UNL1       -0.3794
     36 O          19.2860   72.3119   -6.9849 O.3     1  UNL1       -0.3263
     37 H          16.9194   74.6536  -10.2576 H       1  UNL1        0.2105
     38 H          19.1719   72.1909  -10.8404 H       1  UNL1        0.2105
     39 C          15.1747   74.1930   -7.0606 C.2     1  UNL1        0.2231
     40 C          13.8999   74.6987   -6.4349 C.3     1  UNL1        0.0946
     41 N          16.3662   74.5346   -6.5333 N.am    1  UNL1       -0.2994
     42 O          15.1280   73.4790   -8.0394 O.2     1  UNL1       -0.2751
     43 H          16.4039   75.1063   -5.7501 H       1  UNL1        0.1496
     44 C          20.2373   71.1751   -8.8896 C.3     1  UNL1        0.1693
     45 O          21.1795   72.1660   -9.3050 O.3     1  UNL1       -0.3794
     46 H          21.9423   71.6934   -9.6647 H       1  UNL1        0.2105
@<TRIPOS>BOND
     1    29    30    1
     2    29    28    1
     3    29    36    1
     4    30    31    1
     5    30    41    1
     6    31    32    1
     7    31    34    1
     8    32    33    1
     9    32    35    1
    10    33    44    1
    11    33    36    1
    12    44    45    1
    13    39    40    1
    14    39    41   am
    15    39    42    2
    16    41    43    1
    17    28    25    1
    18    34    37    1
    19    35    38    1
    20    45    46    1
    21    15    16   ar
    22    15    20   ar
    23    15     6    1
    24    16    17   ar
    25    16    21    2
    26    17    18   ar
    27    17    23    1
    28    18    19   ar
    29    18    22    2
    30    19    20   ar
    31     6     7    1
    32     6    11    1
    33     7     8    1
    34     7     9    1
    35     8    13    1
    36     9    10    1
    37     9    12    1
    38    10    11    1
    39    10     5    1
    40    12    14    1
    41     5     4    1
    42     4     1    1
    43     1     2    2
    44     1     3    1
    45     1    24    1
    46    24    25    1
    47    25    26    2
    48    25    27    1
@<TRIPOS>MOLECULE
UD1
 46 48 0 0 0
SMALL
GASTEIGER

@<TRIPOS>ATOM
      1 P          22.3652   71.7035   -3.0813 P.3     1  UNL1        0.2189
      2 O          22.8369   70.3821   -2.6120 O.2     1  UNL1       -0.5170
      3 O          23.6198   72.5662   -3.6049 O.3     1  UNL1       -0.4371
      4 O          21.6509   72.4806   -1.8652 O.3     1  UNL1       -0.3112
      5 C          22.6714   73.2145   -1.1868 C.3     1  UNL1        0.1811
      6 C          22.6118   73.3621    2.4051 C.3     1  UNL1        0.2383
      7 C          21.2258   72.7887    2.0172 C.3     1  UNL1        0.1895
      8 O          20.7364   71.9066    3.0280 O.3     1  UNL1       -0.3779
      9 C          21.5479   72.0122    0.7139 C.3     1  UNL1        0.1713
     10 C          22.8641   72.6421    0.2184 C.3     1  UNL1        0.1764
     11 O          23.2066   73.6971    1.1333 O.3     1  UNL1       -0.3308
     12 O          21.7246   70.6213    0.9908 O.3     1  UNL1       -0.3794
     13 H          19.8749   71.5862    2.7270 H       1  UNL1        0.2106
     14 H          20.8879   70.3000    1.3524 H       1  UNL1        0.2105
     15 N          22.4651   74.5570    3.2371 N.ar    1  UNL1       -0.2551
     16 C          22.4964   74.4444    4.5763 C.ar    1  UNL1        0.3323
     17 N          22.3680   75.5270    5.3662 N.ar    1  UNL1       -0.2743
     18 C          22.1955   76.7485    4.8220 C.ar    1  UNL1        0.2626
     19 C          22.1546   76.8806    3.4135 C.ar    1  UNL1        0.0795
     20 C          22.2914   75.7788    2.6448 C.ar    1  UNL1        0.0869
     21 O          22.6514   73.3495    5.0821 O.2     1  UNL1       -0.2464
     22 O          22.0745   77.7273    5.5352 O.2     1  UNL1       -0.2670
     23 H          22.3978   75.4279    6.3303 H       1  UNL1        0.1734
     24 O          21.3125   71.5024   -4.2814 O.3     1  UNL1       -0.2703
     25 P          21.4068   72.8152   -5.2072 P.3     1  UNL1        0.2208
     26 O          22.7103   72.8327   -5.9068 O.2     1  UNL1       -0.5170
     27 O          21.2736   74.1310   -4.2890 O.3     1  UNL1       -0.4371
     28 O          20.2167   72.7959   -6.2906 O.3     1  UNL1       -0.2865
     29 C          20.1885   71.4825   -6.8521 C.3     1  UNL1        0.2611
     30 C          20.1596   71.5860   -8.3780 C.3     1  UNL1        0.1582
     31 C          18.9210   72.3828   -8.8029 C.3     1  UNL1        0.1625
     32 C          17.6830   71.7391   -8.1695 C.3     1  UNL1        0.1686
     33 C          17.8976   71.6268   -6.6586 C.3     1  UNL1        0.1760
     34 O          18.8016   72.3593  -10.2265 O.3     1  UNL1       -0.3801
     35 O          16.5359   72.5495   -8.4317 O.3     1  UNL1       -0.3794
     36 O          19.0266   70.7954   -6.3925 O.3     1  UNL1       -0.3263
     37 H          18.0119   72.8712  -10.4492 H       1  UNL1        0.2105
     38 H          15.7812   72.1091   -8.0157 H       1  UNL1        0.2105
     39 C          21.3641   73.6067   -9.0107 C.2     1  UNL1        0.2231
     40 C          22.6071   74.3102   -9.4926 C.3     1  UNL1        0.0946
     41 N          21.3671   72.2699   -8.8456 N.am    1  UNL1       -0.2994
     42 O          20.3606   74.2441   -8.7722 O.2     1  UNL1       -0.2751
     43 H          22.1699   71.7596   -9.0367 H       1  UNL1        0.1496
     44 C          16.6533   71.0146   -6.0121 C.3     1  UNL1        0.1693
     45 O          16.1170   70.0061   -6.8709 O.3     1  UNL1       -0.3794
     46 H          15.3364   69.6473   -6.4276 H       1  UNL1        0.2105
@<TRIPOS>BOND
     1    29    30    1
     2    29    28    1
     3    29    36    1
     4    30    31    1
     5    30    41    1
     6    31    32    1
     7    31    34    1
     8    32    33    1
     9    32    35    1
    10    33    44    1
    11    33    36    1
    12    44    45    1
    13    39    40    1
    14    39    41   am
    15    39    42    2
    16    41    43    1
    17    28    25    1
    18    34    37    1
    19    35    38    1
    20    45    46    1
    21    15    16   ar
    22    15    20   ar
    23    15     6    1
    24    16    17   ar
    25    16    21    2
    26    17    18   ar
    27    17    23    1
    28    18    19   ar
    29    18    22    2
    30    19    20   ar
    31     6     7    1
    32     6    11    1
    33     7     8    1
    34     7     9    1
    35     8    13    1
    36     9    10    1
    37     9    12    1
    38    10    11    1
    39    10     5    1
    40    12    14    1
    41     5     4    1
    42     4     1    1
    43     1     2    2
    44     1     3    1
    45     1    24    1
    46    24    25    1
    47    25    26    2
    48    25    27    1
@<TRIPOS>MOLECULE
UD1
 46 48 0 0 0
SMALL
GASTEIGER

@<TRIPOS>ATOM
      1 P          19.0401   70.1450   -3.2882 P.3     1  UNL1        0.2189
      2 O          18.4971   71.5088   -3.1039 O.2     1  UNL1       -0.5170
      3 O          18.3995   69.1591   -2.1881 O.3     1  UNL1       -0.4371
      4 O          20.6403   70.1768   -3.1119 O.3     1  UNL1       -0.3112
      5 C          20.8997   70.3576   -1.7189 C.3     1  UNL1        0.1811
      6 C          21.6156   73.1752    0.3966 C.3     1  UNL1        0.2383
      7 C          22.9683   72.8469   -0.2835 C.3     1  UNL1        0.1895
      8 O          23.7551   74.0266   -0.4525 O.3     1  UNL1       -0.3779
      9 C          22.5147   72.2831   -1.6552 C.3     1  UNL1        0.1713
     10 C          21.0554   71.8489   -1.4175 C.3     1  UNL1        0.1764
     11 O          20.7514   72.1027   -0.0353 O.3     1  UNL1       -0.3308
     12 O          22.5844   73.2966   -2.6605 O.3     1  UNL1       -0.3794
     13 H          24.5798   73.7547   -0.8784 H       1  UNL1        0.2106
     14 H          23.5102   73.5679   -2.7199 H       1  UNL1        0.2105
     15 N          21.7526   73.1728    1.8535 N.ar    1  UNL1       -0.2551
     16 C          21.8891   72.0064    2.5079 C.ar    1  UNL1        0.3323
     17 N          22.0210   71.9743    3.8473 N.ar    1  UNL1       -0.2743
     18 C          22.0088   73.1195    4.5588 C.ar    1  UNL1        0.2626
     19 C          21.8598   74.3541    3.8832 C.ar    1  UNL1        0.0795
     20 C          21.7348   74.3577    2.5387 C.ar    1  UNL1        0.0869
     21 O          21.9021   70.9651    1.8801 O.2     1  UNL1       -0.2464
     22 O          22.1232   73.0914    5.7702 O.2     1  UNL1       -0.2670
     23 H          22.1233   71.1243    4.3025 H       1  UNL1        0.1734
     24 O          18.6732   69.6161   -4.7628 O.3     1  UNL1       -0.2703
     25 P          17.2671   70.2891   -5.1617 P.3     1  UNL1        0.2208
     26 O          16.4338   70.4458   -3.9493 O.2     1  UNL1       -0.5170
     27 O          16.5017   69.3477   -6.2200 O.3     1  UNL1       -0.4371
     28 O          17.5301   71.7331   -5.8222 O.3     1  UNL1       -0.2865
     29 C          16.3377   72.0919   -6.5226 C.3     1  UNL1        0.2611
     30 C          16.6920   72.4719   -7.9614 C.3     1  UNL1        0.1582
     31 C          17.6809   73.6429   -7.9415 C.3     1  UNL1        0.1625
     32 C          17.0848   74.7736   -7.0964 C.3     1  UNL1        0.1686
     33 C          16.7036   74.2205   -5.7216 C.3     1  UNL1        0.1760
     34 O          17.9040   74.1040   -9.2753 O.3     1  UNL1       -0.3801
     35 O          18.0503   75.8156   -6.9430 O.3     1  UNL1       -0.3794
     36 O          15.7190   73.1982   -5.8693 O.3     1  UNL1       -0.3263
     37 H          18.5305   74.8383   -9.2159 H       1  UNL1        0.2105
     38 H          17.6350   76.5049   -6.4054 H       1  UNL1        0.2105
     39 C          18.6447   71.2052   -8.6801 C.2     1  UNL1        0.2231
     40 C          19.2740   70.0240   -9.3738 C.3     1  UNL1        0.0946
     41 N          17.3038   71.3244   -8.6347 N.am    1  UNL1       -0.2994
     42 O          19.3456   72.0488   -8.1633 O.2     1  UNL1       -0.2751
     43 H          16.7426   70.6495   -9.0484 H       1  UNL1        0.1496
     44 C          16.1370   75.3495   -4.8582 C.3     1  UNL1        0.1693
     45 O          15.4447   76.2836   -5.6891 O.3     1  UNL1       -0.3794
     46 H          15.1046   76.9769   -5.1075 H       1  UNL1        0.2105
@<TRIPOS>BOND
     1    29    30    1
     2    29    28    1
     3    29    36    1
     4    30    31    1
     5    30    41    1
     6    31    32    1
     7    31    34    1
     8    32    33    1
     9    32    35    1
    10    33    44    1
    11    33    36    1
    12    44    45    1
    13    39    40    1
    14    39    41   am
    15    39    42    2
    16    41    43    1
    17    28    25    1
    18    34    37    1
    19    35    38    1
    20    45    46    1
    21    15    16   ar
    22    15    20   ar
    23    15     6    1
    24    16    17   ar
    25    16    21    2
    26    17    18   ar
    27    17    23    1
    28    18    19   ar
    29    18    22    2
    30    19    20   ar
    31     6     7    1
    32     6    11    1
    33     7     8    1
    34     7     9    1
    35     8    13    1
    36     9    10    1
    37     9    12    1
    38    10    11    1
    39    10     5    1
    40    12    14    1
    41     5     4    1
    42     4     1    1
    43     1     2    2
    44     1     3    1
    45     1    24    1
    46    24    25    1
    47    25    26    2
    48    25    27    1
@<TRIPOS>MOLECULE
UD1
 46 48 0 0 0
SMALL
GASTEIGER

@<TRIPOS>ATOM
      1 P          19.5660   69.7707   -2.7527 P.3     1  UNL1        0.2189
      2 O          20.4744   69.1336   -3.7313 O.2     1  UNL1       -0.5170
      3 O          18.2861   68.8236   -2.5128 O.3     1  UNL1       -0.4371
      4 O          19.0786   71.1957   -3.3224 O.3     1  UNL1       -0.3112
      5 C          17.6809   71.0776   -3.5920 C.3     1  UNL1        0.1811
      6 C          18.5865   72.3504   -6.8303 C.3     1  UNL1        0.2383
      7 C          18.4484   70.8215   -7.0389 C.3     1  UNL1        0.1895
      8 O          18.0158   70.5238   -8.3669 O.3     1  UNL1       -0.3779
      9 C          17.3548   70.4492   -6.0042 C.3     1  UNL1        0.1713
     10 C          17.3839   71.6123   -4.9938 C.3     1  UNL1        0.1764
     11 O          18.4270   72.5124   -5.4049 O.3     1  UNL1       -0.3308
     12 O          16.0766   70.3597   -6.6373 O.3     1  UNL1       -0.3794
     13 H          17.9505   69.5609   -8.4310 H       1  UNL1        0.2106
     14 H          16.1405   69.6569   -7.2976 H       1  UNL1        0.2105
     15 N          19.9062   72.8159   -7.2582 N.ar    1  UNL1       -0.2551
     16 C          20.0468   73.4120   -8.4550 C.ar    1  UNL1        0.3323
     17 N          21.2480   73.8535   -8.8726 N.ar    1  UNL1       -0.2743
     18 C          22.3381   73.6951   -8.0951 C.ar    1  UNL1        0.2626
     19 C          22.2054   73.0638   -6.8354 C.ar    1  UNL1        0.0795
     20 C          20.9878   72.6353   -6.4389 C.ar    1  UNL1        0.0869
     21 O          19.0730   73.5622   -9.1676 O.2     1  UNL1       -0.2464
     22 O          23.4254   74.0896   -8.4737 O.2     1  UNL1       -0.2670
     23 H          21.3302   74.2855   -9.7368 H       1  UNL1        0.1734
     24 O          20.3432   69.9869   -1.3605 O.3     1  UNL1       -0.2703
     25 P          21.7327   70.7181   -1.7125 P.3     1  UNL1        0.2208
     26 O          22.1828   70.3001   -3.0585 O.2     1  UNL1       -0.5170
     27 O          22.8461   70.3089   -0.6240 O.3     1  UNL1       -0.4371
     28 O          21.5220   72.3136   -1.6888 O.3     1  UNL1       -0.2865
     29 C          22.7484   72.8869   -1.2323 C.3     1  UNL1        0.2611
     30 C          22.4655   73.7994   -0.0375 C.3     1  UNL1        0.1582
     31 C          21.4823   74.8948   -0.4652 C.3     1  UNL1        0.1625
     32 C          22.0424   75.5992   -1.7054 C.3     1  UNL1        0.1686
     33 C          22.3544   74.5511   -2.7756 C.3     1  UNL1        0.1760
     34 O          21.3258   75.8387    0.5960 O.3     1  UNL1       -0.3801
     35 O          21.0756   76.5238   -2.2074 O.3     1  UNL1       -0.3794
     36 O          23.3402   73.6420   -2.2872 O.3     1  UNL1       -0.3263
     37 H          20.7007   76.5078    0.2848 H       1  UNL1        0.2105
     38 H          21.4679   76.9434   -2.9863 H       1  UNL1        0.2105
     39 C          22.4115   73.0761    2.2880 C.2     1  UNL1        0.2231
     40 C          21.8101   72.2668    3.4086 C.3     1  UNL1        0.0946
     41 N          21.8813   73.0137    1.0514 N.am    1  UNL1       -0.2994
     42 O          23.3735   73.7833    2.4995 O.2     1  UNL1       -0.2751
     43 H          21.1116   72.4477    0.8819 H       1  UNL1        0.1496
     44 C          22.8842   75.2476   -4.0307 C.3     1  UNL1        0.1693
     45 O          24.1577   74.7002   -4.3781 O.3     1  UNL1       -0.3794
     46 H          24.4553   75.1655   -5.1716 H       1  UNL1        0.2105
@<TRIPOS>BOND
     1    29    30    1
     2    29    28    1
     3    29    36    1
     4    30    31    1
     5    30    41    1
     6    31    32    1
     7    31    34    1
     8    32    33    1
     9    32    35    1
    10    33    44    1
    11    33    36    1
    12    44    45    1
    13    39    40    1
    14    39    41   am
    15    39    42    2
    16    41    43    1
    17    28    25    1
    18    34    37    1
    19    35    38    1
    20    45    46    1
    21    15    16   ar
    22    15    20   ar
    23    15     6    1
    24    16    17   ar
    25    16    21    2
    26    17    18   ar
    27    17    23    1
    28    18    19   ar
    29    18    22    2
    30    19    20   ar
    31     6     7    1
    32     6    11    1
    33     7     8    1
    34     7     9    1
    35     8    13    1
    36     9    10    1
    37     9    12    1
    38    10    11    1
    39    10     5    1
    40    12    14    1
    41     5     4    1
    42     4     1    1
    43     1     2    2
    44     1     3    1
    45     1    24    1
    46    24    25    1
    47    25    26    2
    48    25    27    1
@<TRIPOS>MOLECULE
UD1
 46 48 0 0 0
SMALL
GASTEIGER

@<TRIPOS>ATOM
      1 P          18.7531   74.8539   -2.6345 P.3     1  UNL1        0.2189
      2 O          17.8289   75.1305   -1.5129 O.2     1  UNL1       -0.5170
      3 O          18.1624   75.4963   -3.9877 O.3     1  UNL1       -0.4371
      4 O          18.9087   73.2621   -2.8208 O.3     1  UNL1       -0.3112
      5 C          17.7126   72.6673   -2.3150 C.3     1  UNL1        0.1811
      6 C          17.9069   70.3662   -5.0708 C.3     1  UNL1        0.2383
      7 C          19.1763   70.0750   -4.2317 C.3     1  UNL1        0.1895
      8 O          19.5570   68.7029   -4.3401 O.3     1  UNL1       -0.3779
      9 C          18.6988   70.4049   -2.7936 C.3     1  UNL1        0.1713
     10 C          17.4792   71.3226   -3.0053 C.3     1  UNL1        0.1764
     11 O          17.3305   71.5195   -4.4218 O.3     1  UNL1       -0.3308
     12 O          18.3208   69.2105   -2.1056 O.3     1  UNL1       -0.3794
     13 H          20.3497   68.5885   -3.7978 H       1  UNL1        0.2106
     14 H          19.1097   68.6542   -2.0577 H       1  UNL1        0.2105
     15 N          18.2602   70.6766   -6.4565 N.ar    1  UNL1       -0.2551
     16 C          17.3352   70.5513   -7.4240 C.ar    1  UNL1        0.3323
     17 N          17.6311   70.8337   -8.7066 N.ar    1  UNL1       -0.2743
     18 C          18.8714   71.2406   -9.0441 C.ar    1  UNL1        0.2626
     19 C          19.8565   71.3711   -8.0364 C.ar    1  UNL1        0.0795
     20 C          19.5312   71.0864   -6.7572 C.ar    1  UNL1        0.0869
     21 O          16.2121   70.1854   -7.1354 O.2     1  UNL1       -0.2464
     22 O          19.1413   71.4916  -10.2041 O.2     1  UNL1       -0.2670
     23 H          16.9502   70.7423   -9.3909 H       1  UNL1        0.1734
     24 O          20.1919   75.4999   -2.3162 O.3     1  UNL1       -0.2703
     25 P          20.5136   75.1807   -0.7722 P.3     1  UNL1        0.2208
     26 O          19.3547   75.5660    0.0628 O.2     1  UNL1       -0.5170
     27 O          21.8093   76.0167   -0.3092 O.3     1  UNL1       -0.4371
     28 O          20.8014   73.6068   -0.5970 O.3     1  UNL1       -0.2865
     29 C          22.2116   73.4253   -0.7365 C.3     1  UNL1        0.2611
     30 C          22.4811   72.3636   -1.8042 C.3     1  UNL1        0.1582
     31 C          21.8052   71.0521   -1.3887 C.3     1  UNL1        0.1625
     32 C          22.2702   70.6876    0.0252 C.3     1  UNL1        0.1686
     33 C          22.0138   71.8749    0.9557 C.3     1  UNL1        0.1760
     34 O          22.1727   70.0144   -2.2995 O.3     1  UNL1       -0.3801
     35 O          21.5421   69.5491    0.4892 O.3     1  UNL1       -0.3794
     36 O          22.7612   73.0063    0.5108 O.3     1  UNL1       -0.3263
     37 H          21.7263   69.2099   -2.0014 H       1  UNL1        0.2105
     38 H          21.8648   69.3549    1.3806 H       1  UNL1        0.2105
     39 C          22.7471   72.9394   -4.1562 C.2     1  UNL1        0.2231
     40 C          22.1863   73.4001   -5.4774 C.3     1  UNL1        0.0946
     41 N          21.9367   72.8106   -3.0880 N.am    1  UNL1       -0.2994
     42 O          23.9282   72.6851   -4.0545 O.2     1  UNL1       -0.2751
     43 H          20.9915   73.0143   -3.1691 H       1  UNL1        0.1496
     44 C          22.4449   71.5094    2.3776 C.3     1  UNL1        0.1693
     45 O          21.3873   71.8130    3.2893 O.3     1  UNL1       -0.3794
     46 H          21.6993   71.5687    4.1712 H       1  UNL1        0.2105
@<TRIPOS>BOND
     1    29    30    1
     2    29    28    1
     3    29    36    1
     4    30    31    1
     5    30    41    1
     6    31    32    1
     7    31    34    1
     8    32    33    1
     9    32    35    1
    10    33    44    1
    11    33    36    1
    12    44    45    1
    13    39    40    1
    14    39    41   am
    15    39    42    2
    16    41    43    1
    17    28    25    1
    18    34    37    1
    19    35    38    1
    20    45    46    1
    21    15    16   ar
    22    15    20   ar
    23    15     6    1
    24    16    17   ar
    25    16    21    2
    26    17    18   ar
    27    17    23    1
    28    18    19   ar
    29    18    22    2
    30    19    20   ar
    31     6     7    1
    32     6    11    1
    33     7     8    1
    34     7     9    1
    35     8    13    1
    36     9    10    1
    37     9    12    1
    38    10    11    1
    39    10     5    1
    40    12    14    1
    41     5     4    1
    42     4     1    1
    43     1     2    2
    44     1     3    1
    45     1    24    1
    46    24    25    1
    47    25    26    2
    48    25    27    1
@<TRIPOS>MOLECULE
UD1
 46 48 0 0 0
SMALL
GASTEIGER

@<TRIPOS>ATOM
      1 P          19.4845   69.6961   -3.0326 P.3     1  UNL1        0.2189
      2 O          18.4058   68.8283   -2.5111 O.2     1  UNL1       -0.5170
      3 O          20.9074   68.9759   -2.8106 O.3     1  UNL1       -0.4371
      4 O          19.4677   71.1022   -2.2481 O.3     1  UNL1       -0.3112
      5 C          20.6334   71.1299   -1.4230 C.3     1  UNL1        0.1811
      6 C          21.6961   73.7099    0.8444 C.3     1  UNL1        0.2383
      7 C          22.9862   73.2997    0.0911 C.3     1  UNL1        0.1895
      8 O          23.8809   74.4060   -0.0304 O.3     1  UNL1       -0.3779
      9 C          22.4338   72.8798   -1.2959 C.3     1  UNL1        0.1713
     10 C          20.9471   72.5743   -1.0299 C.3     1  UNL1        0.1764
     11 O          20.7155   72.7594    0.3769 O.3     1  UNL1       -0.3308
     12 O          22.5714   73.9494   -2.2339 O.3     1  UNL1       -0.3794
     13 H          24.6599   74.0855   -0.5057 H       1  UNL1        0.2106
     14 H          23.5172   74.1327   -2.3118 H       1  UNL1        0.2105
     15 N          21.8800   73.5924    2.2914 N.ar    1  UNL1       -0.2551
     16 C          21.8139   72.3833    2.8755 C.ar    1  UNL1        0.3323
     17 N          21.9830   72.2450    4.2038 N.ar    1  UNL1       -0.2743
     18 C          22.2138   73.3262    4.9756 C.ar    1  UNL1        0.2626
     19 C          22.2800   74.6058    4.3746 C.ar    1  UNL1        0.0795
     20 C          22.1120   74.7153    3.0392 C.ar    1  UNL1        0.0869
     21 O          21.6065   71.3987    2.1927 O.2     1  UNL1       -0.2464
     22 O          22.3622   73.2029    6.1773 O.2     1  UNL1       -0.2670
     23 H          21.9368   71.3647    4.6077 H       1  UNL1        0.1734
     24 O          19.2525   69.9555   -4.6035 O.3     1  UNL1       -0.2703
     25 P          17.9927   70.9486   -4.7296 P.3     1  UNL1        0.2208
     26 O          18.0680   71.9778   -3.6694 O.2     1  UNL1       -0.5170
     27 O          16.6284   70.1095   -4.5659 O.3     1  UNL1       -0.4371
     28 O          18.0124   71.6620   -6.1723 O.3     1  UNL1       -0.2865
     29 C          19.3397   72.1500   -6.3753 C.3     1  UNL1        0.2611
     30 C          19.2805   73.6291   -6.7609 C.3     1  UNL1        0.1582
     31 C          18.4469   73.7810   -8.0382 C.3     1  UNL1        0.1625
     32 C          19.0204   72.8498   -9.1115 C.3     1  UNL1        0.1686
     33 C          19.0964   71.4287   -8.5494 C.3     1  UNL1        0.1760
     34 O          18.5079   75.1346   -8.4917 O.3     1  UNL1       -0.3801
     35 O          18.1720   72.8658  -10.2611 O.3     1  UNL1       -0.3794
     36 O          19.9648   71.4038   -7.4173 O.3     1  UNL1       -0.3263
     37 H          17.9711   75.1847   -9.2945 H       1  UNL1        0.2105
     38 H          18.5687   72.2672  -10.9099 H       1  UNL1        0.2105
     39 C          17.3445   74.6767   -5.7177 C.2     1  UNL1        0.2231
     40 C          16.7070   75.4642   -4.6016 C.3     1  UNL1        0.0946
     41 N          18.6607   74.3936   -5.6767 N.am    1  UNL1       -0.2994
     42 O          16.6725   74.2982   -6.6533 O.2     1  UNL1       -0.2751
     43 H          19.1987   74.6966   -4.9282 H       1  UNL1        0.1496
     44 C          19.6377   70.4844   -9.6248 C.3     1  UNL1        0.1693
     45 O          18.5710   70.0811  -10.4860 O.3     1  UNL1       -0.3794
     46 H          18.9538   69.4885  -11.1470 H       1  UNL1        0.2105
@<TRIPOS>BOND
     1    29    30    1
     2    29    28    1
     3    29    36    1
     4    30    31    1
     5    30    41    1
     6    31    32    1
     7    31    34    1
     8    32    33    1
     9    32    35    1
    10    33    44    1
    11    33    36    1
    12    44    45    1
    13    39    40    1
    14    39    41   am
    15    39    42    2
    16    41    43    1
    17    28    25    1
    18    34    37    1
    19    35    38    1
    20    45    46    1
    21    15    16   ar
    22    15    20   ar
    23    15     6    1
    24    16    17   ar
    25    16    21    2
    26    17    18   ar
    27    17    23    1
    28    18    19   ar
    29    18    22    2
    30    19    20   ar
    31     6     7    1
    32     6    11    1
    33     7     8    1
    34     7     9    1
    35     8    13    1
    36     9    10    1
    37     9    12    1
    38    10    11    1
    39    10     5    1
    40    12    14    1
    41     5     4    1
    42     4     1    1
    43     1     2    2
    44     1     3    1
    45     1    24    1
    46    24    25    1
    47    25    26    2
    48    25    27    1
@<TRIPOS>MOLECULE
UD1
 46 48 0 0 0
SMALL
GASTEIGER

@<TRIPOS>ATOM
      1 P          19.6405   69.8436   -3.2014 P.3     1  UNL1        0.2189
      2 O          20.7000   68.8162   -3.0979 O.2     1  UNL1       -0.5170
      3 O          18.2551   69.2442   -2.6412 O.3     1  UNL1       -0.4371
      4 O          19.4553   70.2692   -4.7433 O.3     1  UNL1       -0.3112
      5 C          18.0497   70.3230   -4.9919 C.3     1  UNL1        0.1811
      6 C          18.9923   72.5483   -7.6540 C.3     1  UNL1        0.2383
      7 C          18.7598   71.1847   -8.3519 C.3     1  UNL1        0.1895
      8 O          18.2945   71.3679   -9.6894 O.3     1  UNL1       -0.3779
      9 C          17.6581   70.5487   -7.4649 C.3     1  UNL1        0.1713
     10 C          17.7691   71.3074   -6.1283 C.3     1  UNL1        0.1764
     11 O          18.8596   72.2364   -6.2509 O.3     1  UNL1       -0.3308
     12 O          16.3694   70.7423   -8.0519 O.3     1  UNL1       -0.3794
     13 H          18.1705   70.4857  -10.0662 H       1  UNL1        0.2106
     14 H          16.3831   70.2959   -8.9091 H       1  UNL1        0.2105
     15 N          20.3326   73.0587   -7.9448 N.ar    1  UNL1       -0.2551
     16 C          20.9067   72.7865   -9.1295 C.ar    1  UNL1        0.3323
     17 N          22.1368   73.2462   -9.4256 N.ar    1  UNL1       -0.2743
     18 C          22.8205   73.9844   -8.5281 C.ar    1  UNL1        0.2626
     19 C          22.2304   74.2735   -7.2747 C.ar    1  UNL1        0.0795
     20 C          20.9931   73.8043   -7.0058 C.ar    1  UNL1        0.0869
     21 O          20.3027   72.1220   -9.9494 O.2     1  UNL1       -0.2464
     22 O          23.9347   74.3966   -8.7928 O.2     1  UNL1       -0.2670
     23 H          22.5338   73.0442  -10.2869 H       1  UNL1        0.1734
     24 O          20.0575   71.1337   -2.3351 O.3     1  UNL1       -0.2703
     25 P          21.5545   70.8737   -1.8052 P.3     1  UNL1        0.2208
     26 O          22.4394   70.5769   -2.9531 O.2     1  UNL1       -0.5170
     27 O          21.5558   69.6239   -0.7903 O.3     1  UNL1       -0.4371
     28 O          22.0896   72.1849   -1.0402 O.3     1  UNL1       -0.2865
     29 C          20.9622   72.7744   -0.3900 C.3     1  UNL1        0.2611
     30 C          21.0669   74.2978   -0.4801 C.3     1  UNL1        0.1582
     31 C          22.3723   74.7507    0.1836 C.3     1  UNL1        0.1625
     32 C          22.4253   74.1763    1.6032 C.3     1  UNL1        0.1686
     33 C          22.2212   72.6613    1.5358 C.3     1  UNL1        0.1760
     34 O          22.4112   76.1779    0.2392 O.3     1  UNL1       -0.3801
     35 O          23.6973   74.4631    2.1876 O.3     1  UNL1       -0.3794
     36 O          20.9401   72.3718    0.9778 O.3     1  UNL1       -0.3263
     37 H          23.2469   76.4183    0.6624 H       1  UNL1        0.2105
     38 H          23.6879   74.0840    3.0780 H       1  UNL1        0.2105
     39 C          19.9074   75.0465   -2.4874 C.2     1  UNL1        0.2231
     40 C          19.9047   75.4669   -3.9349 C.3     1  UNL1        0.0946
     41 N          21.0638   74.7068   -1.8861 N.am    1  UNL1       -0.2994
     42 O          18.8680   75.0133   -1.8637 O.2     1  UNL1       -0.2751
     43 H          21.8957   74.7330   -2.3851 H       1  UNL1        0.1496
     44 C          22.3049   72.0735    2.9460 C.3     1  UNL1        0.1693
     45 O          20.9894   71.9523    3.4908 O.3     1  UNL1       -0.3794
     46 H          21.0869   71.5795    4.3775 H       1  UNL1        0.2105
@<TRIPOS>BOND
     1    29    30    1
     2    29    28    1
     3    29    36    1
     4    30    31    1
     5    30    41    1
     6    31    32    1
     7    31    34    1
     8    32    33    1
     9    32    35    1
    10    33    44    1
    11    33    36    1
    12    44    45    1
    13    39    40    1
    14    39    41   am
    15    39    42    2
    16    41    43    1
    17    28    25    1
    18    34    37    1
    19    35    38    1
    20    45    46    1
    21    15    16   ar
    22    15    20   ar
    23    15     6    1
    24    16    17   ar
    25    16    21    2
    26    17    18   ar
    27    17    23    1
    28    18    19   ar
    29    18    22    2
    30    19    20   ar
    31     6     7    1
    32     6    11    1
    33     7     8    1
    34     7     9    1
    35     8    13    1
    36     9    10    1
    37     9    12    1
    38    10    11    1
    39    10     5    1
    40    12    14    1
    41     5     4    1
    42     4     1    1
    43     1     2    2
    44     1     3    1
    45     1    24    1
    46    24    25    1
    47    25    26    2
    48    25    27    1
