@<TRIPOS>MOLECULE
UDP-glaA
 43 45 0 0 0
SMALL
GASTEIGER

@<TRIPOS>ATOM
      1 P          20.4226   71.2397   -1.3604 P.3     1  UNL1        0.2189
      2 O          20.3130   70.8157    0.1970 O.3     1  UNL1       -0.4371
      3 O          20.0545   72.6643   -1.6560 O.2     1  UNL1       -0.5170
      4 O          19.5546   70.1147   -2.1327 O.3     1  UNL1       -0.3112
      5 C          19.2448   70.3190   -3.5007 C.3     1  UNL1        0.1811
      6 O          17.5909   71.3891   -4.8770 O.3     1  UNL1       -0.3308
      7 O          15.5524   69.8940   -3.2645 O.3     1  UNL1       -0.3794
      8 O          15.7080   68.4126   -5.5486 O.3     1  UNL1       -0.3779
      9 C          16.8513   69.4789   -3.6867 C.3     1  UNL1        0.1713
     10 C          16.8451   69.1587   -5.1666 C.3     1  UNL1        0.1895
     11 C          17.7738   70.6893   -3.6264 C.3     1  UNL1        0.1764
     12 C          16.8708   70.5441   -5.7895 C.3     1  UNL1        0.2383
     13 H          15.6141   70.1253   -2.3220 H       1  UNL1        0.2105
     14 H          15.7079   67.5916   -5.0269 H       1  UNL1        0.2106
     15 O          15.5392   70.5662   -8.2798 O.2     1  UNL1       -0.2464
     16 O          19.5141   70.6045  -10.6115 O.2     1  UNL1       -0.2670
     17 N          17.5326   70.5605   -7.0627 N.ar    1  UNL1       -0.2551
     18 N          17.5194   70.5847   -9.4392 N.ar    1  UNL1       -0.2743
     19 C          16.7712   70.5697   -8.2547 C.ar    1  UNL1        0.3323
     20 C          18.9219   70.5671   -7.1217 C.ar    1  UNL1        0.0869
     21 C          19.6205   70.5819   -8.2590 C.ar    1  UNL1        0.0795
     22 C          18.9014   70.5914   -9.5483 C.ar    1  UNL1        0.2626
     23 H          16.9929   70.5910  -10.3087 H       1  UNL1        0.1734
     24 O          21.9451   70.8455   -1.7370 O.3     1  UNL1       -0.2703
     25 P          23.1336   71.7184   -2.3990 P.3     1  UNL1        0.2208
     26 O          22.3434   72.7559   -3.3557 O.3     1  UNL1       -0.4371
     27 O          24.1802   70.9015   -3.1012 O.2     1  UNL1       -0.5170
     28 O          23.6969   72.6260   -1.1895 O.3     1  UNL1       -0.2858
     29 O          23.6444   71.7714    1.0165 O.3     1  UNL1       -0.3226
     30 O          24.2042   75.8380    1.6710 O.3     1  UNL1       -0.3794
     31 O          22.3643   74.9089   -0.3924 O.3     1  UNL1       -0.3775
     32 O          24.2245   73.5391    3.2022 O.3     1  UNL1       -0.3792
     33 C          24.3126   74.5744    1.0215 C.3     1  UNL1        0.1718
     34 C          22.9276   74.0660    0.6071 C.3     1  UNL1        0.1968
     35 C          24.9705   73.5791    1.9812 C.3     1  UNL1        0.1723
     36 C          23.0147   72.6343    0.0638 C.3     1  UNL1        0.2706
     37 C          24.9666   72.1853    1.3571 C.3     1  UNL1        0.1830
     38 H          25.1019   76.1193    1.9171 H       1  UNL1        0.2105
     39 H          21.4953   74.5432   -0.6290 H       1  UNL1        0.2106
     40 H          23.3960   73.0563    3.0423 H       1  UNL1        0.2106
     41 O          26.6526   71.5599    2.8639 O.co2   1  UNL1       -0.5466
     42 O          24.9293   70.0970    2.5684 O.co2   1  UNL1       -0.5466
     43 C          25.4826   71.1566    2.3124 C.2     1  UNL1        0.0799
@<TRIPOS>UNITY_ATOM_ATTR
41 1
charge -1
@<TRIPOS>BOND
     1     1     4    1
     2     1    24    1
     3     1     2    1
     4     1     3    2
     5    25    28    1
     6    25    24    1
     7    25    26    1
     8    25    27    2
     9     6    11    1
    10     6    12    1
    11    29    36    1
    12    29    37    1
    13     7     9    1
    14     7    13    1
    15     8    10    1
    16     8    14    1
    17     4     5    1
    18    28    36    1
    19    30    33    1
    20    30    38    1
    21    31    34    1
    22    31    39    1
    23    32    35    1
    24    32    40    1
    25    41    43   ar
    26    15    19    2
    27    42    43   ar
    28    16    22    2
    29    17    12    1
    30    17    19   ar
    31    17    20   ar
    32    18    19   ar
    33    18    22   ar
    34    18    23    1
    35     9    10    1
    36     9    11    1
    37    10    12    1
    38    11     5    1
    39    33    34    1
    40    33    35    1
    41    34    36    1
    42    35    37    1
    43    37    43    1
    44    20    21   ar
    45    21    22   ar
@<TRIPOS>MOLECULE
UDP-glaA
 43 45 0 0 0
SMALL
GASTEIGER

@<TRIPOS>ATOM
      1 P          20.0292   71.9911   -1.3038 P.3     1  UNL1        0.2189
      2 O          19.7840   70.4087   -1.0733 O.3     1  UNL1       -0.4371
      3 O          18.9828   72.8871   -0.7086 O.2     1  UNL1       -0.5170
      4 O          20.2422   72.1239   -2.9015 O.3     1  UNL1       -0.3112
      5 C          19.6280   71.1676   -3.7485 C.3     1  UNL1        0.1811
      6 O          17.8271   71.9349   -5.1422 O.3     1  UNL1       -0.3308
      7 O          15.9891   70.6319   -3.1635 O.3     1  UNL1       -0.3794
      8 O          16.0635   68.8135   -5.1942 O.3     1  UNL1       -0.3779
      9 C          17.2756   70.2095   -3.6153 C.3     1  UNL1        0.1713
     10 C          17.1830   69.6578   -5.0223 C.3     1  UNL1        0.1895
     11 C          18.1341   71.4515   -3.8159 C.3     1  UNL1        0.1764
     12 C          17.0910   70.9261   -5.8534 C.3     1  UNL1        0.2383
     13 H          16.1042   71.0127   -2.2762 H       1  UNL1        0.2105
     14 H          16.1437   68.0868   -4.5526 H       1  UNL1        0.2106
     15 O          15.5857   70.6921   -8.2314 O.2     1  UNL1       -0.2464
     16 O          19.3836   70.3179  -10.8150 O.2     1  UNL1       -0.2670
     17 N          17.6604   70.7672   -7.1611 N.ar    1  UNL1       -0.2551
     18 N          17.4779   70.5054   -9.5163 N.ar    1  UNL1       -0.2743
     19 C          16.8162   70.6579   -8.2907 C.ar    1  UNL1        0.3323
     20 C          19.0416   70.7207   -7.3147 C.ar    1  UNL1        0.0869
     21 C          19.6573   70.5754   -8.4901 C.ar    1  UNL1        0.0795
     22 C          18.8483   70.4532   -9.7190 C.ar    1  UNL1        0.2626
     23 H          16.8909   70.4243  -10.3421 H       1  UNL1        0.1734
     24 O          21.5201   72.2157   -0.7188 O.3     1  UNL1       -0.2703
     25 P          22.3593   71.3916    0.3899 P.3     1  UNL1        0.2208
     26 O          23.6996   70.9589   -0.4052 O.3     1  UNL1       -0.4371
     27 O          21.6072   70.2470    1.0063 O.2     1  UNL1       -0.5170
     28 O          22.8525   72.5098    1.4437 O.3     1  UNL1       -0.2858
     29 O          24.4902   72.5805    3.1503 O.3     1  UNL1       -0.3226
     30 O          21.3299   74.6460    4.8897 O.3     1  UNL1       -0.3794
     31 O          20.8398   72.2409    3.3144 O.3     1  UNL1       -0.3775
     32 O          23.9776   74.1481    5.4994 O.3     1  UNL1       -0.3792
     33 C          22.2006   74.1783    3.8634 C.3     1  UNL1        0.1718
     34 C          22.1293   72.6512    3.7567 C.3     1  UNL1        0.1968
     35 C          23.6314   74.6143    4.1911 C.3     1  UNL1        0.1723
     36 C          23.1855   72.1252    2.7769 C.3     1  UNL1        0.2706
     37 C          24.5986   74.0028    3.1797 C.3     1  UNL1        0.1830
     38 H          21.4093   75.6145    4.9230 H       1  UNL1        0.2105
     39 H          20.8456   71.2709    3.2531 H       1  UNL1        0.2106
     40 H          24.1276   73.1886    5.4558 H       1  UNL1        0.2106
     41 O          26.1329   75.5318    4.0807 O.co2   1  UNL1       -0.5466
     42 O          26.9590   73.5305    3.3669 O.co2   1  UNL1       -0.5466
     43 C          26.0211   74.2961    3.5366 C.2     1  UNL1        0.0799
@<TRIPOS>UNITY_ATOM_ATTR
41 1
charge -1
@<TRIPOS>BOND
     1     1     4    1
     2     1    24    1
     3     1     2    1
     4     1     3    2
     5    25    28    1
     6    25    24    1
     7    25    26    1
     8    25    27    2
     9     6    11    1
    10     6    12    1
    11    29    36    1
    12    29    37    1
    13     7     9    1
    14     7    13    1
    15     8    10    1
    16     8    14    1
    17     4     5    1
    18    28    36    1
    19    30    33    1
    20    30    38    1
    21    31    34    1
    22    31    39    1
    23    32    35    1
    24    32    40    1
    25    41    43   ar
    26    15    19    2
    27    42    43   ar
    28    16    22    2
    29    17    12    1
    30    17    19   ar
    31    17    20   ar
    32    18    19   ar
    33    18    22   ar
    34    18    23    1
    35     9    10    1
    36     9    11    1
    37    10    12    1
    38    11     5    1
    39    33    34    1
    40    33    35    1
    41    34    36    1
    42    35    37    1
    43    37    43    1
    44    20    21   ar
    45    21    22   ar
@<TRIPOS>MOLECULE
UDP-glaA
 43 45 0 0 0
SMALL
GASTEIGER

@<TRIPOS>ATOM
      1 P          21.7559   72.8951   -5.9604 P.3     1  UNL1        0.2189
      2 O          23.0884   72.1164   -5.4751 O.3     1  UNL1       -0.4371
      3 O          21.0775   73.7108   -4.8990 O.2     1  UNL1       -0.5170
      4 O          20.8544   71.7378   -6.6411 O.3     1  UNL1       -0.3112
      5 C          20.0867   72.0633   -7.7874 C.3     1  UNL1        0.1811
      6 O          19.0076   69.9878   -7.2380 O.3     1  UNL1       -0.3308
      7 O          18.0772   69.9329  -10.0881 O.3     1  UNL1       -0.3794
      8 O          15.8648   70.8089   -8.7562 O.3     1  UNL1       -0.3779
      9 C          18.2407   71.0485   -9.2127 C.3     1  UNL1        0.1713
     10 C          17.1288   71.0774   -8.1854 C.3     1  UNL1        0.1895
     11 C          19.4674   70.7908   -8.3475 C.3     1  UNL1        0.1764
     12 C          17.5708   69.9986   -7.2113 C.3     1  UNL1        0.2383
     13 H          18.8313   69.9332  -10.7020 H       1  UNL1        0.2105
     14 H          15.7055   71.4789   -9.4430 H       1  UNL1        0.2106
     15 O          16.0940   68.1770   -5.6376 O.2     1  UNL1       -0.2464
     16 O          15.9334   71.0999   -2.0782 O.2     1  UNL1       -0.2670
     17 N          17.1305   70.2572   -5.8701 N.ar    1  UNL1       -0.2551
     18 N          16.0146   69.6339   -3.8664 N.ar    1  UNL1       -0.2743
     19 C          16.3938   69.2757   -5.1668 C.ar    1  UNL1        0.3323
     20 C          17.4291   71.4729   -5.2648 C.ar    1  UNL1        0.0869
     21 C          17.0608   71.7991   -4.0240 C.ar    1  UNL1        0.0795
     22 C          16.2877   70.8304   -3.2218 C.ar    1  UNL1        0.2626
     23 H          15.4835   68.9439   -3.3420 H       1  UNL1        0.1734
     24 O          22.2767   73.7456   -7.2334 O.3     1  UNL1       -0.2703
     25 P          22.8358   75.2584   -7.3409 P.3     1  UNL1        0.2208
     26 O          23.8250   75.3798   -6.0670 O.3     1  UNL1       -0.4371
     27 O          21.7637   76.3088   -7.3958 O.2     1  UNL1       -0.5170
     28 O          23.8184   75.2412   -8.6208 O.3     1  UNL1       -0.2858
     29 O          25.8429   76.4573   -8.7684 O.3     1  UNL1       -0.3226
     30 O          24.8433   75.9409  -12.7701 O.3     1  UNL1       -0.3794
     31 O          22.7905   76.5867  -10.8016 O.3     1  UNL1       -0.3775
     32 O          27.0172   76.8863  -11.3522 O.3     1  UNL1       -0.3792
     33 C          24.9505   75.6361  -11.3824 C.3     1  UNL1        0.1718
     34 C          24.1888   76.6709  -10.5474 C.3     1  UNL1        0.1968
     35 C          26.4303   75.6323  -10.9891 C.3     1  UNL1        0.1723
     36 C          24.4395   76.4520   -9.0502 C.3     1  UNL1        0.2706
     37 C          26.5594   75.4484   -9.4785 C.3     1  UNL1        0.1830
     38 H          25.3410   75.2633  -13.2586 H       1  UNL1        0.2105
     39 H          22.3507   77.2517  -10.2457 H       1  UNL1        0.2106
     40 H          26.7061   77.5648  -10.7293 H       1  UNL1        0.2106
     41 O          28.2669   76.8445   -8.6792 O.co2   1  UNL1       -0.5466
     42 O          28.7826   74.6452   -8.9864 O.co2   1  UNL1       -0.5466
     43 C          27.9819   75.5679   -9.0323 C.2     1  UNL1        0.0799
@<TRIPOS>UNITY_ATOM_ATTR
41 1
charge -1
@<TRIPOS>BOND
     1     1     4    1
     2     1    24    1
     3     1     2    1
     4     1     3    2
     5    25    28    1
     6    25    24    1
     7    25    26    1
     8    25    27    2
     9     6    11    1
    10     6    12    1
    11    29    36    1
    12    29    37    1
    13     7     9    1
    14     7    13    1
    15     8    10    1
    16     8    14    1
    17     4     5    1
    18    28    36    1
    19    30    33    1
    20    30    38    1
    21    31    34    1
    22    31    39    1
    23    32    35    1
    24    32    40    1
    25    41    43   ar
    26    15    19    2
    27    42    43   ar
    28    16    22    2
    29    17    12    1
    30    17    19   ar
    31    17    20   ar
    32    18    19   ar
    33    18    22   ar
    34    18    23    1
    35     9    10    1
    36     9    11    1
    37    10    12    1
    38    11     5    1
    39    33    34    1
    40    33    35    1
    41    34    36    1
    42    35    37    1
    43    37    43    1
    44    20    21   ar
    45    21    22   ar
@<TRIPOS>MOLECULE
UDP-glaA
 43 45 0 0 0
SMALL
GASTEIGER

@<TRIPOS>ATOM
      1 P          23.3348   71.9993   -3.3923 P.3     1  UNL1        0.2189
      2 O          24.1039   72.9315   -4.4679 O.3     1  UNL1       -0.4371
      3 O          24.0904   70.7773   -2.9590 O.2     1  UNL1       -0.5170
      4 O          21.8921   71.7296   -4.0715 O.3     1  UNL1       -0.3112
      5 C          21.1497   70.5954   -3.6572 C.3     1  UNL1        0.1811
      6 O          19.1619   71.6395   -4.5133 O.3     1  UNL1       -0.3308
      7 O          17.7260   70.3663   -2.2092 O.3     1  UNL1       -0.3794
      8 O          17.0993   68.7154   -4.2870 O.3     1  UNL1       -0.3779
      9 C          18.8081   69.8596   -2.9903 C.3     1  UNL1        0.1713
     10 C          18.3146   69.4322   -4.3564 C.3     1  UNL1        0.1895
     11 C          19.7260   71.0255   -3.3334 C.3     1  UNL1        0.1764
     12 C          18.1663   70.7652   -5.0699 C.3     1  UNL1        0.2383
     13 H          18.0956   70.6630   -1.3601 H       1  UNL1        0.2105
     14 H          17.2509   67.9359   -3.7252 H       1  UNL1        0.2106
     15 O          16.2206   69.8720   -6.9115 O.2     1  UNL1       -0.2464
     16 O          19.0949   70.3859  -10.4770 O.2     1  UNL1       -0.2670
     17 N          18.3789   70.6563   -6.4849 N.ar    1  UNL1       -0.2551
     18 N          17.6533   70.1280   -8.6857 N.ar    1  UNL1       -0.2743
     19 C          17.3363   70.1957   -7.3226 C.ar    1  UNL1        0.3323
     20 C          19.6101   71.0037   -7.0297 C.ar    1  UNL1        0.0869
     21 C          19.8967   70.9340   -8.3316 C.ar    1  UNL1        0.0795
     22 C          18.8632   70.4621   -9.2743 C.ar    1  UNL1        0.2626
     23 H          16.9191   69.7990   -9.3068 H       1  UNL1        0.1734
     24 O          22.9867   73.0341   -2.1993 O.3     1  UNL1       -0.2703
     25 P          22.8275   72.8025   -0.6076 P.3     1  UNL1        0.2208
     26 O          21.2944   72.3100   -0.4558 O.3     1  UNL1       -0.4371
     27 O          23.1795   74.0003    0.2274 O.2     1  UNL1       -0.5170
     28 O          23.7112   71.4890   -0.2951 O.3     1  UNL1       -0.2858
     29 O          24.6933   71.8422    1.8287 O.3     1  UNL1       -0.3226
     30 O          20.6417   72.2499    2.6639 O.3     1  UNL1       -0.3794
     31 O          21.5787   70.1640    0.8536 O.3     1  UNL1       -0.3775
     32 O          23.0179   72.6551    4.0128 O.3     1  UNL1       -0.3792
     33 C          21.8548   72.3300    1.9208 C.3     1  UNL1        0.1718
     34 C          22.4357   70.9303    1.6934 C.3     1  UNL1        0.1968
     35 C          22.8545   73.1924    2.6962 C.3     1  UNL1        0.1723
     36 C          23.8238   71.0167    1.0467 C.3     1  UNL1        0.2706
     37 C          24.2067   73.1740    1.9867 C.3     1  UNL1        0.1830
     38 H          20.3120   73.1565    2.7859 H       1  UNL1        0.2105
     39 H          21.9910   69.2924    0.7308 H       1  UNL1        0.2106
     40 H          23.5484   71.8427    3.9513 H       1  UNL1        0.2106
     41 O          24.7062   74.9504    3.4354 O.co2   1  UNL1       -0.5466
     42 O          26.4307   73.5873    2.8311 O.co2   1  UNL1       -0.5466
     43 C          25.2495   73.8979    2.7776 C.2     1  UNL1        0.0799
@<TRIPOS>UNITY_ATOM_ATTR
41 1
charge -1
@<TRIPOS>BOND
     1     1     4    1
     2     1    24    1
     3     1     2    1
     4     1     3    2
     5    25    28    1
     6    25    24    1
     7    25    26    1
     8    25    27    2
     9     6    11    1
    10     6    12    1
    11    29    36    1
    12    29    37    1
    13     7     9    1
    14     7    13    1
    15     8    10    1
    16     8    14    1
    17     4     5    1
    18    28    36    1
    19    30    33    1
    20    30    38    1
    21    31    34    1
    22    31    39    1
    23    32    35    1
    24    32    40    1
    25    41    43   ar
    26    15    19    2
    27    42    43   ar
    28    16    22    2
    29    17    12    1
    30    17    19   ar
    31    17    20   ar
    32    18    19   ar
    33    18    22   ar
    34    18    23    1
    35     9    10    1
    36     9    11    1
    37    10    12    1
    38    11     5    1
    39    33    34    1
    40    33    35    1
    41    34    36    1
    42    35    37    1
    43    37    43    1
    44    20    21   ar
    45    21    22   ar
@<TRIPOS>MOLECULE
UDP-glaA
 43 45 0 0 0
SMALL
GASTEIGER

@<TRIPOS>ATOM
      1 P          21.9752   73.2323   -5.3568 P.3     1  UNL1        0.2189
      2 O          21.7492   74.7141   -5.9654 O.3     1  UNL1       -0.4371
      3 O          22.9331   72.3711   -6.1267 O.2     1  UNL1       -0.5170
      4 O          20.4771   72.6451   -5.1939 O.3     1  UNL1       -0.3112
      5 C          20.1442   71.9601   -3.9984 C.3     1  UNL1        0.1811
      6 O          18.0591   72.1260   -5.1814 O.3     1  UNL1       -0.3308
      7 O          16.8403   70.6739   -2.8582 O.3     1  UNL1       -0.3794
      8 O          17.1143   68.6984   -4.7178 O.3     1  UNL1       -0.3779
      9 C          18.1282   70.5091   -3.4513 C.3     1  UNL1        0.1713
     10 C          18.0071   69.7915   -4.7790 C.3     1  UNL1        0.1895
     11 C          18.6290   71.8832   -3.8762 C.3     1  UNL1        0.1764
     12 C          17.5118   70.8995   -5.6928 C.3     1  UNL1        0.2383
     13 H          16.9633   71.1712   -2.0317 H       1  UNL1        0.2105
     14 H          17.4440   68.0891   -4.0351 H       1  UNL1        0.2106
     15 O          15.7819   70.3837   -7.8646 O.2     1  UNL1       -0.2464
     16 O          19.2835   70.2460  -10.8577 O.2     1  UNL1       -0.2670
     17 N          17.9442   70.7252   -7.0500 N.ar    1  UNL1       -0.2551
     18 N          17.5268   70.3150   -9.3536 N.ar    1  UNL1       -0.2743
     19 C          16.9946   70.4691   -8.0666 C.ar    1  UNL1        0.3323
     20 C          19.2965   70.8081   -7.3628 C.ar    1  UNL1        0.0869
     21 C          19.7881   70.6593   -8.5948 C.ar    1  UNL1        0.0795
     22 C          18.8635   70.3885   -9.7135 C.ar    1  UNL1        0.2626
     23 H          16.8626   70.1295  -10.1002 H       1  UNL1        0.1734
     24 O          22.4161   73.5311   -3.8298 O.3     1  UNL1       -0.2703
     25 P          23.8077   74.0776   -3.2157 P.3     1  UNL1        0.2208
     26 O          23.5420   75.6644   -3.0491 O.3     1  UNL1       -0.4371
     27 O          25.0192   73.7345   -4.0344 O.2     1  UNL1       -0.5170
     28 O          23.8401   73.5083   -1.7061 O.3     1  UNL1       -0.2858
     29 O          22.1136   73.2036   -0.1169 O.3     1  UNL1       -0.3226
     30 O          25.3407   74.2379    2.2904 O.3     1  UNL1       -0.3794
     31 O          24.8858   75.6048   -0.2454 O.3     1  UNL1       -0.3775
     32 O          22.7641   73.3202    2.6763 O.3     1  UNL1       -0.3792
     33 C          24.6395   73.6610    1.1924 C.3     1  UNL1        0.1718
     34 C          23.9331   74.7499    0.3778 C.3     1  UNL1        0.1968
     35 C          23.6129   72.6607    1.7310 C.3     1  UNL1        0.1723
     36 C          23.0383   74.1270   -0.7009 C.3     1  UNL1        0.2706
     37 C          22.7545   72.1372    0.5815 C.3     1  UNL1        0.1830
     38 H          25.7692   73.5138    2.7779 H       1  UNL1        0.2105
     39 H          24.3936   76.2699   -0.7556 H       1  UNL1        0.2106
     40 H          22.1550   73.9021    2.1911 H       1  UNL1        0.2106
     41 O          20.6249   71.9969    1.5557 O.co2   1  UNL1       -0.5466
     42 O          21.6699   70.0331    1.0573 O.co2   1  UNL1       -0.5466
     43 C          21.6534   71.2553    1.0784 C.2     1  UNL1        0.0799
@<TRIPOS>UNITY_ATOM_ATTR
41 1
charge -1
@<TRIPOS>BOND
     1     1     4    1
     2     1    24    1
     3     1     2    1
     4     1     3    2
     5    25    28    1
     6    25    24    1
     7    25    26    1
     8    25    27    2
     9     6    11    1
    10     6    12    1
    11    29    36    1
    12    29    37    1
    13     7     9    1
    14     7    13    1
    15     8    10    1
    16     8    14    1
    17     4     5    1
    18    28    36    1
    19    30    33    1
    20    30    38    1
    21    31    34    1
    22    31    39    1
    23    32    35    1
    24    32    40    1
    25    41    43   ar
    26    15    19    2
    27    42    43   ar
    28    16    22    2
    29    17    12    1
    30    17    19   ar
    31    17    20   ar
    32    18    19   ar
    33    18    22   ar
    34    18    23    1
    35     9    10    1
    36     9    11    1
    37    10    12    1
    38    11     5    1
    39    33    34    1
    40    33    35    1
    41    34    36    1
    42    35    37    1
    43    37    43    1
    44    20    21   ar
    45    21    22   ar
@<TRIPOS>MOLECULE
UDP-glaA
 43 45 0 0 0
SMALL
GASTEIGER

@<TRIPOS>ATOM
      1 P          21.4841   72.4049   -4.8365 P.3     1  UNL1        0.2189
      2 O          21.1793   73.9795   -4.6245 O.3     1  UNL1       -0.4371
      3 O          22.4393   72.0894   -5.9502 O.2     1  UNL1       -0.5170
      4 O          20.0164   71.7369   -4.9590 O.3     1  UNL1       -0.3112
      5 C          19.4379   71.1559   -3.8026 C.3     1  UNL1        0.1811
      6 O          17.5894   71.6578   -5.2536 O.3     1  UNL1       -0.3308
      7 O          15.8884   70.1461   -3.3009 O.3     1  UNL1       -0.3794
      8 O          16.2597   68.3283   -5.2992 O.3     1  UNL1       -0.3779
      9 C          17.2315   69.8938   -3.7132 C.3     1  UNL1        0.1713
     10 C          17.2516   69.3167   -5.1129 C.3     1  UNL1        0.1895
     11 C          17.9220   71.2366   -3.9123 C.3     1  UNL1        0.1764
     12 C          17.0140   70.5506   -5.9667 C.3     1  UNL1        0.2383
     13 H          15.9276   70.5502   -2.4173 H       1  UNL1        0.2105
     14 H          16.4185   67.6270   -4.6441 H       1  UNL1        0.2106
     15 O          15.6306   70.7394   -8.4215 O.2     1  UNL1       -0.2464
     16 O          19.4999   70.1570  -10.8562 O.2     1  UNL1       -0.2670
     17 N          17.6347   70.4525   -7.2568 N.ar    1  UNL1       -0.2551
     18 N          17.5582   70.4487   -9.6323 N.ar    1  UNL1       -0.2743
     19 C          16.8498   70.5599   -8.4285 C.ar    1  UNL1        0.3323
     20 C          19.0073   70.2517   -7.3520 C.ar    1  UNL1        0.0869
     21 C          19.6681   70.1483   -8.5072 C.ar    1  UNL1        0.0795
     22 C          18.9222   70.2485   -9.7774 C.ar    1  UNL1        0.2626
     23 H          17.0141   70.5223  -10.4877 H       1  UNL1        0.1734
     24 O          21.9778   71.9309   -3.3713 O.3     1  UNL1       -0.2703
     25 P          23.4434   71.9460   -2.6900 P.3     1  UNL1        0.2208
     26 O          24.0620   73.3607   -3.1719 O.3     1  UNL1       -0.4371
     27 O          24.2909   70.7523   -3.0253 O.2     1  UNL1       -0.5170
     28 O          23.1595   72.1403   -1.1134 O.3     1  UNL1       -0.2858
     29 O          24.4028   71.0529    0.5810 O.3     1  UNL1       -0.3226
     30 O          20.8429   71.9299    2.5398 O.3     1  UNL1       -0.3794
     31 O          20.8215   70.9773   -0.2167 O.3     1  UNL1       -0.3775
     32 O          23.3307   70.9564    3.2418 O.3     1  UNL1       -0.3792
     33 C          21.9312   72.0940    1.6349 C.3     1  UNL1        0.1718
     34 C          21.9673   70.9398    0.6275 C.3     1  UNL1        0.1968
     35 C          23.2372   72.1337    2.4331 C.3     1  UNL1        0.1723
     36 C          23.2304   71.0147   -0.2394 C.3     1  UNL1        0.2706
     37 C          24.4246   72.1660    1.4732 C.3     1  UNL1        0.1830
     38 H          20.8605   72.6796    3.1588 H       1  UNL1        0.2105
     39 H          20.8930   70.2361   -0.8415 H       1  UNL1        0.2106
     40 H          23.5389   70.2016    2.6655 H       1  UNL1        0.2106
     41 O          26.3754   70.9305    1.8873 O.co2   1  UNL1       -0.5466
     42 O          26.1497   72.9142    2.9878 O.co2   1  UNL1       -0.5466
     43 C          25.7244   72.0748    2.2074 C.2     1  UNL1        0.0799
@<TRIPOS>UNITY_ATOM_ATTR
41 1
charge -1
@<TRIPOS>BOND
     1     1     4    1
     2     1    24    1
     3     1     2    1
     4     1     3    2
     5    25    28    1
     6    25    24    1
     7    25    26    1
     8    25    27    2
     9     6    11    1
    10     6    12    1
    11    29    36    1
    12    29    37    1
    13     7     9    1
    14     7    13    1
    15     8    10    1
    16     8    14    1
    17     4     5    1
    18    28    36    1
    19    30    33    1
    20    30    38    1
    21    31    34    1
    22    31    39    1
    23    32    35    1
    24    32    40    1
    25    41    43   ar
    26    15    19    2
    27    42    43   ar
    28    16    22    2
    29    17    12    1
    30    17    19   ar
    31    17    20   ar
    32    18    19   ar
    33    18    22   ar
    34    18    23    1
    35     9    10    1
    36     9    11    1
    37    10    12    1
    38    11     5    1
    39    33    34    1
    40    33    35    1
    41    34    36    1
    42    35    37    1
    43    37    43    1
    44    20    21   ar
    45    21    22   ar
@<TRIPOS>MOLECULE
UDP-glaA
 43 45 0 0 0
SMALL
GASTEIGER

@<TRIPOS>ATOM
      1 P          22.8144   71.6050   -2.6521 P.3     1  UNL1        0.2189
      2 O          22.9012   73.2074   -2.4466 O.3     1  UNL1       -0.4371
      3 O          24.1301   70.9262   -2.8979 O.2     1  UNL1       -0.5170
      4 O          21.7010   71.4204   -3.8105 O.3     1  UNL1       -0.3112
      5 C          21.6058   72.4085   -4.8223 C.3     1  UNL1        0.1811
      6 O          20.5962   70.5427   -5.9508 O.3     1  UNL1       -0.3308
      7 O          20.9485   72.1197   -8.4767 O.3     1  UNL1       -0.3794
      8 O          18.3108   72.5009   -7.8998 O.3     1  UNL1       -0.3779
      9 C          20.6266   72.5776   -7.1636 C.3     1  UNL1        0.1713
     10 C          19.1903   72.2374   -6.8262 C.3     1  UNL1        0.1895
     11 C          21.3990   71.7244   -6.1661 C.3     1  UNL1        0.1764
     12 C          19.2850   70.7569   -6.4988 C.3     1  UNL1        0.2383
     13 H          21.8862   72.3241   -8.6332 H       1  UNL1        0.2105
     14 H          18.3902   73.4455   -8.1181 H       1  UNL1        0.2106
     15 O          16.6654   69.9253   -7.1481 O.2     1  UNL1       -0.2464
     16 O          15.6033   69.1976   -2.7230 O.2     1  UNL1       -0.2670
     17 N          18.3035   70.3443   -5.5367 N.ar    1  UNL1       -0.2551
     18 N          16.1381   69.5640   -4.9441 N.ar    1  UNL1       -0.2743
     19 C          17.0162   69.9459   -5.9669 C.ar    1  UNL1        0.3323
     20 C          18.6202   70.3372   -4.1828 C.ar    1  UNL1        0.0869
     21 C          17.7720   69.9698   -3.2198 C.ar    1  UNL1        0.0795
     22 C          16.4072   69.5408   -3.5844 C.ar    1  UNL1        0.2626
     23 H          15.2067   69.2743   -5.2301 H       1  UNL1        0.1734
     24 O          22.0395   71.1105   -1.3216 O.3     1  UNL1       -0.2703
     25 P          22.5131   71.0567    0.2229 P.3     1  UNL1        0.2208
     26 O          24.1184   70.8915    0.1132 O.3     1  UNL1       -0.4371
     27 O          21.8347   69.9935    1.0385 O.2     1  UNL1       -0.5170
     28 O          22.2936   72.5586    0.7705 O.3     1  UNL1       -0.2858
     29 O          23.2135   74.6144    1.4964 O.3     1  UNL1       -0.3226
     30 O          22.0699   72.8565    5.0854 O.3     1  UNL1       -0.3794
     31 O          23.3131   71.2612    2.9841 O.3     1  UNL1       -0.3775
     32 O          23.0047   75.3244    4.2696 O.3     1  UNL1       -0.3792
     33 C          22.0228   73.1918    3.7013 C.3     1  UNL1        0.1718
     34 C          23.2792   72.6844    2.9854 C.3     1  UNL1        0.1968
     35 C          21.9198   74.7133    3.5636 C.3     1  UNL1        0.1723
     36 C          23.3197   73.1875    1.5371 C.3     1  UNL1        0.2706
     37 C          22.0113   75.1025    2.0898 C.3     1  UNL1        0.1830
     38 H          21.2583   73.1983    5.4978 H       1  UNL1        0.2105
     39 H          24.1184   70.9874    2.5135 H       1  UNL1        0.2106
     40 H          23.8206   75.1901    3.7583 H       1  UNL1        0.2106
     41 O          21.2306   77.1926    2.8151 O.co2   1  UNL1       -0.5466
     42 O          22.7155   77.1822    1.0853 O.co2   1  UNL1       -0.5466
     43 C          22.0453   76.5878    1.9172 C.2     1  UNL1        0.0799
@<TRIPOS>UNITY_ATOM_ATTR
41 1
charge -1
@<TRIPOS>BOND
     1     1     4    1
     2     1    24    1
     3     1     2    1
     4     1     3    2
     5    25    28    1
     6    25    24    1
     7    25    26    1
     8    25    27    2
     9     6    11    1
    10     6    12    1
    11    29    36    1
    12    29    37    1
    13     7     9    1
    14     7    13    1
    15     8    10    1
    16     8    14    1
    17     4     5    1
    18    28    36    1
    19    30    33    1
    20    30    38    1
    21    31    34    1
    22    31    39    1
    23    32    35    1
    24    32    40    1
    25    41    43   ar
    26    15    19    2
    27    42    43   ar
    28    16    22    2
    29    17    12    1
    30    17    19   ar
    31    17    20   ar
    32    18    19   ar
    33    18    22   ar
    34    18    23    1
    35     9    10    1
    36     9    11    1
    37    10    12    1
    38    11     5    1
    39    33    34    1
    40    33    35    1
    41    34    36    1
    42    35    37    1
    43    37    43    1
    44    20    21   ar
    45    21    22   ar
@<TRIPOS>MOLECULE
UDP-glaA
 43 45 0 0 0
SMALL
GASTEIGER

@<TRIPOS>ATOM
      1 P          21.8133   72.6288   -5.6843 P.3     1  UNL1        0.2189
      2 O          21.2728   74.1431   -5.5054 O.3     1  UNL1       -0.4371
      3 O          23.0229   72.4879   -6.5614 O.2     1  UNL1       -0.5170
      4 O          20.5053   71.8009   -6.1526 O.3     1  UNL1       -0.3112
      5 C          19.9199   72.1113   -7.4057 C.3     1  UNL1        0.1811
      6 O          18.7479   70.0693   -6.9253 O.3     1  UNL1       -0.3308
      7 O          18.0669   69.9926   -9.8445 O.3     1  UNL1       -0.3794
      8 O          15.7691   70.9385   -8.7217 O.3     1  UNL1       -0.3779
      9 C          18.1806   71.1173   -8.9728 C.3     1  UNL1        0.1713
     10 C          16.9849   71.1869   -8.0466 C.3     1  UNL1        0.1895
     11 C          19.3211   70.8449   -8.0009 C.3     1  UNL1        0.1764
     12 C          17.3148   70.1131   -7.0238 C.3     1  UNL1        0.2383
     13 H          18.8712   69.9665  -10.3904 H       1  UNL1        0.2105
     14 H          15.6860   71.6016   -9.4285 H       1  UNL1        0.2106
     15 O          16.6125   68.1536   -5.1153 O.2     1  UNL1       -0.2464
     16 O          15.2158   71.3378   -2.0905 O.2     1  UNL1       -0.2670
     17 N          16.7662   70.4018   -5.7295 N.ar    1  UNL1       -0.2551
     18 N          15.9170   69.7405   -3.6105 N.ar    1  UNL1       -0.2743
     19 C          16.4467   69.3447   -4.8458 C.ar    1  UNL1        0.3323
     20 C          16.5497   71.7210   -5.3470 C.ar    1  UNL1        0.0869
     21 C          16.0443   72.0822   -4.1655 C.ar    1  UNL1        0.0795
     22 C          15.6831   71.0390   -3.1852 C.ar    1  UNL1        0.2626
     23 H          15.6793   68.9971   -2.9593 H       1  UNL1        0.1734
     24 O          22.0269   72.1376   -4.1585 O.3     1  UNL1       -0.2703
     25 P          23.2947   72.2809   -3.1661 P.3     1  UNL1        0.2208
     26 O          24.5010   72.6916   -4.1621 O.3     1  UNL1       -0.4371
     27 O          23.5663   71.0607   -2.3336 O.2     1  UNL1       -0.5170
     28 O          22.9967   73.6175   -2.3125 O.3     1  UNL1       -0.2858
     29 O          20.8381   72.9975   -1.5673 O.3     1  UNL1       -0.3226
     30 O          23.2877   70.5264    0.7070 O.3     1  UNL1       -0.3794
     31 O          24.0208   73.3091    0.2329 O.3     1  UNL1       -0.3775
     32 O          20.5778   70.7787    0.2348 O.3     1  UNL1       -0.3792
     33 C          22.8483   71.2823   -0.4181 C.3     1  UNL1        0.1718
     34 C          22.7362   72.7666   -0.0539 C.3     1  UNL1        0.1968
     35 C          21.4861   70.7498   -0.8711 C.3     1  UNL1        0.1723
     36 C          22.1021   73.5613   -1.2023 C.3     1  UNL1        0.2706
     37 C          20.9329   71.6365   -1.9846 C.3     1  UNL1        0.1830
     38 H          23.3417   69.5953    0.4318 H       1  UNL1        0.2105
     39 H          23.9008   74.2495    0.4479 H       1  UNL1        0.2106
     40 H          20.3219   71.7019    0.4002 H       1  UNL1        0.2106
     41 O          18.6286   71.9081   -1.6378 O.co2   1  UNL1       -0.5466
     42 O          19.2691   70.4041   -3.2268 O.co2   1  UNL1       -0.5466
     43 C          19.5458   71.2304   -2.3694 C.2     1  UNL1        0.0799
@<TRIPOS>UNITY_ATOM_ATTR
41 1
charge -1
@<TRIPOS>BOND
     1     1     4    1
     2     1    24    1
     3     1     2    1
     4     1     3    2
     5    25    28    1
     6    25    24    1
     7    25    26    1
     8    25    27    2
     9     6    11    1
    10     6    12    1
    11    29    36    1
    12    29    37    1
    13     7     9    1
    14     7    13    1
    15     8    10    1
    16     8    14    1
    17     4     5    1
    18    28    36    1
    19    30    33    1
    20    30    38    1
    21    31    34    1
    22    31    39    1
    23    32    35    1
    24    32    40    1
    25    41    43   ar
    26    15    19    2
    27    42    43   ar
    28    16    22    2
    29    17    12    1
    30    17    19   ar
    31    17    20   ar
    32    18    19   ar
    33    18    22   ar
    34    18    23    1
    35     9    10    1
    36     9    11    1
    37    10    12    1
    38    11     5    1
    39    33    34    1
    40    33    35    1
    41    34    36    1
    42    35    37    1
    43    37    43    1
    44    20    21   ar
    45    21    22   ar
@<TRIPOS>MOLECULE
UDP-glaA
 43 45 0 0 0
SMALL
GASTEIGER

@<TRIPOS>ATOM
      1 P          22.5784   72.4060   -1.7902 P.3     1  UNL1        0.2189
      2 O          20.9998   72.4313   -1.4367 O.3     1  UNL1       -0.4371
      3 O          23.2646   73.7387   -1.7180 O.2     1  UNL1       -0.5170
      4 O          22.6451   71.6577   -3.2223 O.3     1  UNL1       -0.3112
      5 C          21.6139   71.9027   -4.1635 C.3     1  UNL1        0.1811
      6 O          21.5517   71.4730   -6.5269 O.3     1  UNL1       -0.3308
      7 O          23.1096   74.0159   -6.8408 O.3     1  UNL1       -0.3794
      8 O          20.5712   74.7917   -7.4655 O.3     1  UNL1       -0.3779
      9 C          22.0801   73.6971   -5.9048 C.3     1  UNL1        0.1713
     10 C          20.7298   73.6945   -6.5899 C.3     1  UNL1        0.1895
     11 C          22.2401   72.2347   -5.5104 C.3     1  UNL1        0.1764
     12 C          20.7488   72.3625   -7.3202 C.3     1  UNL1        0.2383
     13 H          23.9573   73.9671   -6.3669 H       1  UNL1        0.2105
     14 H          20.6804   75.6033   -6.9406 H       1  UNL1        0.2106
     15 O          20.0825   70.3350   -9.1696 O.2     1  UNL1       -0.2464
     16 O          15.6810   70.2828   -7.8047 O.2     1  UNL1       -0.2670
     17 N          19.4369   71.8002   -7.4692 N.ar    1  UNL1       -0.2551
     18 N          17.8910   70.3107   -8.4891 N.ar    1  UNL1       -0.2743
     19 C          19.2075   70.7865   -8.4286 C.ar    1  UNL1        0.3323
     20 C          18.3936   72.2536   -6.6696 C.ar    1  UNL1        0.0869
     21 C          17.1440   71.7894   -6.7390 C.ar    1  UNL1        0.0795
     22 C          16.8201   70.7305   -7.7154 C.ar    1  UNL1        0.2626
     23 H          17.7027   69.5819   -9.1722 H       1  UNL1        0.1734
     24 O          23.1600   71.2929   -0.7714 O.3     1  UNL1       -0.2703
     25 P          22.7665   70.9462    0.7575 P.3     1  UNL1        0.2208
     26 O          24.0639   70.1493    1.3030 O.3     1  UNL1       -0.4371
     27 O          21.4721   70.1990    0.9061 O.2     1  UNL1       -0.5170
     28 O          22.8080   72.3664    1.5225 O.3     1  UNL1       -0.2858
     29 O          24.0682   73.1655    3.3590 O.3     1  UNL1       -0.3226
     30 O          20.3830   74.9882    3.9725 O.3     1  UNL1       -0.3794
     31 O          20.5345   72.2152    3.0816 O.3     1  UNL1       -0.3775
     32 O          22.9106   75.1549    5.0739 O.3     1  UNL1       -0.3792
     33 C          21.4878   74.4439    3.2559 C.3     1  UNL1        0.1718
     34 C          21.6484   72.9533    3.5729 C.3     1  UNL1        0.1968
     35 C          22.7572   75.2033    3.6516 C.3     1  UNL1        0.1723
     36 C          22.9327   72.3994    2.9436 C.3     1  UNL1        0.2706
     37 C          23.9727   74.5440    3.0035 C.3     1  UNL1        0.1830
     38 H          20.3209   75.9313    3.7438 H       1  UNL1        0.2105
     39 H          20.6849   71.2793    3.2965 H       1  UNL1        0.2106
     40 H          23.1965   74.2599    5.3235 H       1  UNL1        0.2106
     41 O          25.6349   74.6534    4.6555 O.co2   1  UNL1       -0.5466
     42 O          25.8647   76.0369    2.8582 O.co2   1  UNL1       -0.5466
     43 C          25.2482   75.1736    3.4658 C.2     1  UNL1        0.0799
@<TRIPOS>UNITY_ATOM_ATTR
41 1
charge -1
@<TRIPOS>BOND
     1     1     4    1
     2     1    24    1
     3     1     2    1
     4     1     3    2
     5    25    28    1
     6    25    24    1
     7    25    26    1
     8    25    27    2
     9     6    11    1
    10     6    12    1
    11    29    36    1
    12    29    37    1
    13     7     9    1
    14     7    13    1
    15     8    10    1
    16     8    14    1
    17     4     5    1
    18    28    36    1
    19    30    33    1
    20    30    38    1
    21    31    34    1
    22    31    39    1
    23    32    35    1
    24    32    40    1
    25    41    43   ar
    26    15    19    2
    27    42    43   ar
    28    16    22    2
    29    17    12    1
    30    17    19   ar
    31    17    20   ar
    32    18    19   ar
    33    18    22   ar
    34    18    23    1
    35     9    10    1
    36     9    11    1
    37    10    12    1
    38    11     5    1
    39    33    34    1
    40    33    35    1
    41    34    36    1
    42    35    37    1
    43    37    43    1
    44    20    21   ar
    45    21    22   ar
@<TRIPOS>MOLECULE
UDP-glaA
 43 45 0 0 0
SMALL
GASTEIGER

@<TRIPOS>ATOM
      1 P          20.0672   70.7367   -2.3619 P.3     1  UNL1        0.2189
      2 O          20.7838   70.1629   -3.6940 O.3     1  UNL1       -0.4371
      3 O          18.9120   69.9192   -1.8625 O.2     1  UNL1       -0.5170
      4 O          19.7318   72.2750   -2.7317 O.3     1  UNL1       -0.3112
      5 C          19.5449   72.6190   -4.0940 C.3     1  UNL1        0.1811
      6 O          17.8692   73.1170   -5.7427 O.3     1  UNL1       -0.3308
      7 O          15.8541   72.4714   -3.6181 O.3     1  UNL1       -0.3794
      8 O          15.8824   70.1974   -5.1227 O.3     1  UNL1       -0.3779
      9 C          17.1243   71.8709   -3.8706 C.3     1  UNL1        0.1713
     10 C          17.0529   70.9878   -5.0985 C.3     1  UNL1        0.1895
     11 C          18.0807   72.9670   -4.3215 C.3     1  UNL1        0.1764
     12 C          17.0922   72.0078   -6.2237 C.3     1  UNL1        0.2383
     13 H          15.9580   73.0565   -2.8485 H       1  UNL1        0.2105
     14 H          15.8800   69.6531   -4.3165 H       1  UNL1        0.2106
     15 O          15.6853   70.7536   -8.3268 O.2     1  UNL1       -0.2464
     16 O          19.5495   70.0527  -10.7383 O.2     1  UNL1       -0.2670
     17 N          17.7051   71.4888   -7.4129 N.ar    1  UNL1       -0.2551
     18 N          17.6105   70.4050   -9.5260 N.ar    1  UNL1       -0.2743
     19 C          16.9088   70.8764   -8.4087 C.ar    1  UNL1        0.3323
     20 C          19.0814   71.5891   -7.5837 C.ar    1  UNL1        0.0869
     21 C          19.7356   71.1351   -8.6550 C.ar    1  UNL1        0.0795
     22 C          18.9780   70.4814   -9.7405 C.ar    1  UNL1        0.2626
     23 H          17.0584   69.9604  -10.2545 H       1  UNL1        0.1734
     24 O          21.2960   70.8734   -1.3196 O.3     1  UNL1       -0.2703
     25 P          22.5777   71.8583   -1.3149 P.3     1  UNL1        0.2208
     26 O          22.1370   73.0359   -0.2975 O.3     1  UNL1       -0.4371
     27 O          22.9909   72.3380   -2.6768 O.2     1  UNL1       -0.5170
     28 O          23.7197   71.0394   -0.5217 O.3     1  UNL1       -0.2858
     29 O          24.6349   72.3020    1.2581 O.3     1  UNL1       -0.3226
     30 O          20.5498   72.7720    1.8672 O.3     1  UNL1       -0.3794
     31 O          21.6430   70.1840    1.0840 O.3     1  UNL1       -0.3775
     32 O          22.8699   73.8450    2.9142 O.3     1  UNL1       -0.3792
     33 C          21.7718   72.6100    1.1524 C.3     1  UNL1        0.1718
     34 C          22.4367   71.2806    1.5250 C.3     1  UNL1        0.1968
     35 C          22.7037   73.7758    1.4941 C.3     1  UNL1        0.1723
     36 C          23.8308   71.1750    0.8945 C.3     1  UNL1        0.2706
     37 C          24.0694   73.5468    0.8502 C.3     1  UNL1        0.1830
     38 H          20.1661   73.6254    1.6026 H       1  UNL1        0.2105
     39 H          22.1071   69.3671    1.3329 H       1  UNL1        0.2106
     40 H          23.4473   73.1145    3.1936 H       1  UNL1        0.2106
     41 O          25.0793   75.6074    0.3625 O.co2   1  UNL1       -0.5466
     42 O          25.7376   74.5555    2.2749 O.co2   1  UNL1       -0.5466
     43 C          25.0521   74.5959    1.2635 C.2     1  UNL1        0.0799
@<TRIPOS>UNITY_ATOM_ATTR
41 1
charge -1
@<TRIPOS>BOND
     1     1     4    1
     2     1    24    1
     3     1     2    1
     4     1     3    2
     5    25    28    1
     6    25    24    1
     7    25    26    1
     8    25    27    2
     9     6    11    1
    10     6    12    1
    11    29    36    1
    12    29    37    1
    13     7     9    1
    14     7    13    1
    15     8    10    1
    16     8    14    1
    17     4     5    1
    18    28    36    1
    19    30    33    1
    20    30    38    1
    21    31    34    1
    22    31    39    1
    23    32    35    1
    24    32    40    1
    25    41    43   ar
    26    15    19    2
    27    42    43   ar
    28    16    22    2
    29    17    12    1
    30    17    19   ar
    31    17    20   ar
    32    18    19   ar
    33    18    22   ar
    34    18    23    1
    35     9    10    1
    36     9    11    1
    37    10    12    1
    38    11     5    1
    39    33    34    1
    40    33    35    1
    41    34    36    1
    42    35    37    1
    43    37    43    1
    44    20    21   ar
    45    21    22   ar
@<TRIPOS>MOLECULE
UDP-glaA
 43 45 0 0 0
SMALL
GASTEIGER

@<TRIPOS>ATOM
      1 P          23.4597   72.0687   -3.3735 P.3     1  UNL1        0.2189
      2 O          24.1554   72.9661   -4.5260 O.3     1  UNL1       -0.4371
      3 O          24.1921   70.8057   -3.0263 O.2     1  UNL1       -0.5170
      4 O          21.9392   71.8799   -3.8913 O.3     1  UNL1       -0.3112
      5 C          21.4825   72.6897   -4.9613 C.3     1  UNL1        0.1811
      6 O          20.6734   70.6356   -5.9102 O.3     1  UNL1       -0.3308
      7 O          21.0540   71.9387   -8.5838 O.3     1  UNL1       -0.3794
      8 O          18.3676   72.1778   -8.1818 O.3     1  UNL1       -0.3779
      9 C          20.6269   72.5162   -7.3502 C.3     1  UNL1        0.1713
     10 C          19.2018   72.1064   -7.0441 C.3     1  UNL1        0.1895
     11 C          21.4008   71.8437   -6.2240 C.3     1  UNL1        0.1764
     12 C          19.3833   70.6843   -6.5413 C.3     1  UNL1        0.2383
     13 H          21.9821   72.1959   -8.7183 H       1  UNL1        0.2105
     14 H          18.3916   73.0948   -8.5053 H       1  UNL1        0.2106
     15 O          16.7813   69.8171   -7.2146 O.2     1  UNL1       -0.2464
     16 O          15.6203   69.2711   -2.7882 O.2     1  UNL1       -0.2670
     17 N          18.3811   70.3088   -5.5853 N.ar    1  UNL1       -0.2551
     18 N          16.2047   69.5462   -5.0100 N.ar    1  UNL1       -0.2743
     19 C          17.1050   69.8882   -6.0276 C.ar    1  UNL1        0.3323
     20 C          18.6668   70.3594   -4.2255 C.ar    1  UNL1        0.0869
     21 C          17.7977   70.0295   -3.2674 C.ar    1  UNL1        0.0795
     22 C          16.4428   69.5808   -3.6447 C.ar    1  UNL1        0.2626
     23 H          15.2809   69.2416   -5.3046 H       1  UNL1        0.1734
     24 O          23.2993   73.1126   -2.1489 O.3     1  UNL1       -0.2703
     25 P          23.2418   72.8724   -0.5516 P.3     1  UNL1        0.2208
     26 O          21.6563   72.8805   -0.2319 O.3     1  UNL1       -0.4371
     27 O          24.0407   73.8606    0.2491 O.2     1  UNL1       -0.5170
     28 O          23.6907   71.3352   -0.3528 O.3     1  UNL1       -0.2858
     29 O          24.5983   71.3670    1.8323 O.3     1  UNL1       -0.3226
     30 O          20.6204   72.3534    2.5270 O.3     1  UNL1       -0.3794
     31 O          21.3180   70.2860    0.5918 O.3     1  UNL1       -0.3775
     32 O          22.9534   72.2716    4.0036 O.3     1  UNL1       -0.3792
     33 C          21.8699   72.2940    1.8448 C.3     1  UNL1        0.1718
     34 C          22.2369   70.8404    1.5273 C.3     1  UNL1        0.1968
     35 C          22.9480   72.9251    2.7301 C.3     1  UNL1        0.1723
     36 C          23.6547   70.7520    0.9490 C.3     1  UNL1        0.2706
     37 C          24.3175   72.7439    2.0791 C.3     1  UNL1        0.1830
     38 H          20.4300   73.2894    2.7094 H       1  UNL1        0.2105
     39 H          21.5954   69.3713    0.4149 H       1  UNL1        0.2106
     40 H          23.3532   71.3918    3.8977 H       1  UNL1        0.2106
     41 O          26.4998   72.4231    2.8783 O.co2   1  UNL1       -0.5466
     42 O          25.3531   74.2212    3.6838 O.co2   1  UNL1       -0.5466
     43 C          25.4157   73.2306    2.9703 C.2     1  UNL1        0.0799
@<TRIPOS>UNITY_ATOM_ATTR
41 1
charge -1
@<TRIPOS>BOND
     1     1     4    1
     2     1    24    1
     3     1     2    1
     4     1     3    2
     5    25    28    1
     6    25    24    1
     7    25    26    1
     8    25    27    2
     9     6    11    1
    10     6    12    1
    11    29    36    1
    12    29    37    1
    13     7     9    1
    14     7    13    1
    15     8    10    1
    16     8    14    1
    17     4     5    1
    18    28    36    1
    19    30    33    1
    20    30    38    1
    21    31    34    1
    22    31    39    1
    23    32    35    1
    24    32    40    1
    25    41    43   ar
    26    15    19    2
    27    42    43   ar
    28    16    22    2
    29    17    12    1
    30    17    19   ar
    31    17    20   ar
    32    18    19   ar
    33    18    22   ar
    34    18    23    1
    35     9    10    1
    36     9    11    1
    37    10    12    1
    38    11     5    1
    39    33    34    1
    40    33    35    1
    41    34    36    1
    42    35    37    1
    43    37    43    1
    44    20    21   ar
    45    21    22   ar
@<TRIPOS>MOLECULE
UDP-glaA
 43 45 0 0 0
SMALL
GASTEIGER

@<TRIPOS>ATOM
      1 P          20.3661   73.1573   -5.0967 P.3     1  UNL1        0.2189
      2 O          19.1179   73.8461   -4.3319 O.3     1  UNL1       -0.4371
      3 O          21.2958   74.1158   -5.7816 O.2     1  UNL1       -0.5170
      4 O          19.6754   72.0468   -6.0482 O.3     1  UNL1       -0.3112
      5 C          19.9012   72.1172   -7.4458 C.3     1  UNL1        0.1811
      6 O          18.7460   70.0434   -7.0733 O.3     1  UNL1       -0.3308
      7 O          18.0399   70.1293   -9.9862 O.3     1  UNL1       -0.3794
      8 O          15.7463   70.9942   -8.7918 O.3     1  UNL1       -0.3779
      9 C          18.1544   71.2030   -9.0526 C.3     1  UNL1        0.1713
     10 C          16.9664   71.2116   -8.1139 C.3     1  UNL1        0.1895
     11 C          19.3051   70.8830   -8.1075 C.3     1  UNL1        0.1764
     12 C          17.3119   70.0833   -7.1570 C.3     1  UNL1        0.2383
     13 H          18.8395   70.1398  -10.5395 H       1  UNL1        0.2105
     14 H          15.6529   71.6961   -9.4587 H       1  UNL1        0.2106
     15 O          16.4918   68.0145   -5.4183 O.2     1  UNL1       -0.2464
     16 O          15.2565   71.0099   -2.1411 O.2     1  UNL1       -0.2670
     17 N          16.7729   70.2938   -5.8438 N.ar    1  UNL1       -0.2551
     18 N          15.8767   69.5075   -3.7877 N.ar    1  UNL1       -0.2743
     19 C          16.3906   69.1865   -5.0511 C.ar    1  UNL1        0.3323
     20 C          16.6275   71.5868   -5.3533 C.ar    1  UNL1        0.0869
     21 C          16.1363   71.8764   -4.1464 C.ar    1  UNL1        0.0795
     22 C          15.7127   70.7773   -3.2563 C.ar    1  UNL1        0.2626
     23 H          15.5948   68.7271   -3.2007 H       1  UNL1        0.1734
     24 O          21.0537   72.2646   -3.9368 O.3     1  UNL1       -0.2703
     25 P          20.4051   71.4531   -2.6985 P.3     1  UNL1        0.2208
     26 O          19.3763   70.4349   -3.4202 O.3     1  UNL1       -0.4371
     27 O          19.7790   72.3271   -1.6497 O.2     1  UNL1       -0.5170
     28 O          21.5984   70.5119   -2.1564 O.3     1  UNL1       -0.2858
     29 O          23.5160   71.8763   -1.9098 O.3     1  UNL1       -0.3226
     30 O          20.7059   73.8994    0.3902 O.3     1  UNL1       -0.3794
     31 O          20.8593   70.9878    0.4609 O.3     1  UNL1       -0.3775
     32 O          23.2692   74.3766   -0.5219 O.3     1  UNL1       -0.3792
     33 C          21.2208   73.1056   -0.6753 C.3     1  UNL1        0.1718
     34 C          21.8522   71.8211   -0.1279 C.3     1  UNL1        0.1968
     35 C          22.2687   73.9205   -1.4383 C.3     1  UNL1        0.1723
     36 C          22.5592   71.0443   -1.2455 C.3     1  UNL1        0.2706
     37 C          22.9340   73.0404   -2.4943 C.3     1  UNL1        0.1830
     38 H          20.3192   74.7010   -0.0016 H       1  UNL1        0.2105
     39 H          21.3032   70.1856    0.7835 H       1  UNL1        0.2106
     40 H          23.8288   73.6211   -0.2745 H       1  UNL1        0.2106
     41 O          24.6086   72.9769   -4.1361 O.co2   1  UNL1       -0.5466
     42 O          24.4244   74.8929   -2.9147 O.co2   1  UNL1       -0.5466
     43 C          24.0548   73.7576   -3.1772 C.2     1  UNL1        0.0799
@<TRIPOS>UNITY_ATOM_ATTR
41 1
charge -1
@<TRIPOS>BOND
     1     1     4    1
     2     1    24    1
     3     1     2    1
     4     1     3    2
     5    25    28    1
     6    25    24    1
     7    25    26    1
     8    25    27    2
     9     6    11    1
    10     6    12    1
    11    29    36    1
    12    29    37    1
    13     7     9    1
    14     7    13    1
    15     8    10    1
    16     8    14    1
    17     4     5    1
    18    28    36    1
    19    30    33    1
    20    30    38    1
    21    31    34    1
    22    31    39    1
    23    32    35    1
    24    32    40    1
    25    41    43   ar
    26    15    19    2
    27    42    43   ar
    28    16    22    2
    29    17    12    1
    30    17    19   ar
    31    17    20   ar
    32    18    19   ar
    33    18    22   ar
    34    18    23    1
    35     9    10    1
    36     9    11    1
    37    10    12    1
    38    11     5    1
    39    33    34    1
    40    33    35    1
    41    34    36    1
    42    35    37    1
    43    37    43    1
    44    20    21   ar
    45    21    22   ar
@<TRIPOS>MOLECULE
UDP-glaA
 43 45 0 0 0
SMALL
GASTEIGER

@<TRIPOS>ATOM
      1 P          21.8257   72.4562   -5.6027 P.3     1  UNL1        0.2189
      2 O          21.0391   73.8426   -5.3263 O.3     1  UNL1       -0.4371
      3 O          23.1274   72.6023   -6.3351 O.2     1  UNL1       -0.5170
      4 O          20.7197   71.5160   -6.3157 O.3     1  UNL1       -0.3112
      5 C          20.1992   71.9158   -7.5720 C.3     1  UNL1        0.1811
      6 O          18.9375   69.9080   -7.1832 O.3     1  UNL1       -0.3308
      7 O          18.1507   70.0657  -10.0723 O.3     1  UNL1       -0.3794
      8 O          15.9478   71.0484   -8.8008 O.3     1  UNL1       -0.3779
      9 C          18.3551   71.1210   -9.1330 C.3     1  UNL1        0.1713
     10 C          17.1982   71.1879   -8.1585 C.3     1  UNL1        0.1895
     11 C          19.5130   70.7251   -8.2264 C.3     1  UNL1        0.1764
     12 C          17.5063   70.0313   -7.2228 C.3     1  UNL1        0.2383
     13 H          18.9327   70.0361  -10.6496 H       1  UNL1        0.2105
     14 H          15.8753   71.7616   -9.4582 H       1  UNL1        0.2106
     15 O          16.2341   68.0742   -5.6332 O.2     1  UNL1       -0.2464
     16 O          15.6792   71.0171   -2.1303 O.2     1  UNL1       -0.2670
     17 N          17.0200   70.2584   -5.8919 N.ar    1  UNL1       -0.2551
     18 N          15.9581   69.5411   -3.8902 N.ar    1  UNL1       -0.2743
     19 C          16.3950   69.2085   -5.1792 C.ar    1  UNL1        0.3323
     20 C          17.1641   71.5110   -5.3056 C.ar    1  UNL1        0.0869
     21 C          16.7426   71.8122   -4.0753 C.ar    1  UNL1        0.0795
     22 C          16.0787   70.7723   -3.2645 C.ar    1  UNL1        0.2626
     23 H          15.5053   68.8018   -3.3595 H       1  UNL1        0.1734
     24 O          21.9529   71.8109   -4.1254 O.3     1  UNL1       -0.2703
     25 P          23.1083   71.9497   -3.0036 P.3     1  UNL1        0.2208
     26 O          23.6203   73.4733   -3.1848 O.3     1  UNL1       -0.4371
     27 O          24.1925   70.9152   -3.1048 O.2     1  UNL1       -0.5170
     28 O          22.3158   71.9495   -1.5980 O.3     1  UNL1       -0.2858
     29 O          23.9379   72.5602    0.0130 O.3     1  UNL1       -0.3226
     30 O          20.4782   72.3273    2.3055 O.3     1  UNL1       -0.3794
     31 O          21.0217   70.3438    0.2376 O.3     1  UNL1       -0.3775
     32 O          23.0773   73.1847    2.6791 O.3     1  UNL1       -0.3792
     33 C          21.2969   72.5731    1.1655 C.3     1  UNL1        0.1718
     34 C          21.9834   71.2803    0.7117 C.3     1  UNL1        0.1968
     35 C          22.3485   73.6251    1.5285 C.3     1  UNL1        0.1723
     36 C          22.9963   71.5659   -0.4039 C.3     1  UNL1        0.2706
     37 C          23.3235   73.7986    0.3660 C.3     1  UNL1        0.1830
     38 H          20.0667   73.1712    2.5586 H       1  UNL1        0.2105
     39 H          21.5023   69.5480   -0.0463 H       1  UNL1        0.2106
     40 H          23.6783   72.4699    2.4090 H       1  UNL1        0.2106
     41 O          25.2990   74.1239    1.5889 O.co2   1  UNL1       -0.5466
     42 O          24.5788   75.8600    0.2988 O.co2   1  UNL1       -0.5466
     43 C          24.4440   74.7221    0.7247 C.2     1  UNL1        0.0799
@<TRIPOS>UNITY_ATOM_ATTR
41 1
charge -1
@<TRIPOS>BOND
     1     1     4    1
     2     1    24    1
     3     1     2    1
     4     1     3    2
     5    25    28    1
     6    25    24    1
     7    25    26    1
     8    25    27    2
     9     6    11    1
    10     6    12    1
    11    29    36    1
    12    29    37    1
    13     7     9    1
    14     7    13    1
    15     8    10    1
    16     8    14    1
    17     4     5    1
    18    28    36    1
    19    30    33    1
    20    30    38    1
    21    31    34    1
    22    31    39    1
    23    32    35    1
    24    32    40    1
    25    41    43   ar
    26    15    19    2
    27    42    43   ar
    28    16    22    2
    29    17    12    1
    30    17    19   ar
    31    17    20   ar
    32    18    19   ar
    33    18    22   ar
    34    18    23    1
    35     9    10    1
    36     9    11    1
    37    10    12    1
    38    11     5    1
    39    33    34    1
    40    33    35    1
    41    34    36    1
    42    35    37    1
    43    37    43    1
    44    20    21   ar
    45    21    22   ar
@<TRIPOS>MOLECULE
UDP-glaA
 43 45 0 0 0
SMALL
GASTEIGER

@<TRIPOS>ATOM
      1 P          21.9188   72.4607   -5.7518 P.3     1  UNL1        0.2189
      2 O          21.3006   73.8810   -5.2849 O.3     1  UNL1       -0.4371
      3 O          23.0969   72.5566   -6.6765 O.2     1  UNL1       -0.5170
      4 O          20.6419   71.6485   -6.3221 O.3     1  UNL1       -0.3112
      5 C          20.1341   71.9947   -7.5994 C.3     1  UNL1        0.1811
      6 O          18.9359   69.9583   -7.1615 O.3     1  UNL1       -0.3308
      7 O          18.1432   70.0228  -10.0526 O.3     1  UNL1       -0.3794
      8 O          15.9113   70.9663   -8.8021 O.3     1  UNL1       -0.3779
      9 C          18.3150   71.1059   -9.1389 C.3     1  UNL1        0.1713
     10 C          17.1570   71.1599   -8.1648 C.3     1  UNL1        0.1895
     11 C          19.4851   70.7680   -8.2245 C.3     1  UNL1        0.1764
     12 C          17.5014   70.0360   -7.2023 C.3     1  UNL1        0.2383
     13 H          18.9255   70.0039  -10.6300 H       1  UNL1        0.2105
     14 H          15.8163   71.6610   -9.4762 H       1  UNL1        0.2106
     15 O          16.2900   68.0790   -5.5659 O.2     1  UNL1       -0.2464
     16 O          15.6469   71.0850   -2.1325 O.2     1  UNL1       -0.2670
     17 N          17.0089   70.2794   -5.8766 N.ar    1  UNL1       -0.2551
     18 N          15.9701   69.5773   -3.8575 N.ar    1  UNL1       -0.2743
     19 C          16.4165   69.2280   -5.1388 C.ar    1  UNL1        0.3323
     20 C          17.1150   71.5492   -5.3200 C.ar    1  UNL1        0.0869
     21 C          16.6850   71.8663   -4.0967 C.ar    1  UNL1        0.0795
     22 C          16.0533   70.8259   -3.2610 C.ar    1  UNL1        0.2626
     23 H          15.5402   68.8373   -3.3091 H       1  UNL1        0.1734
     24 O          22.2235   71.7189   -4.3475 O.3     1  UNL1       -0.2703
     25 P          23.4374   71.8979   -3.2954 P.3     1  UNL1        0.2208
     26 O          24.2085   73.2118   -3.8385 O.3     1  UNL1       -0.4371
     27 O          24.3093   70.6837   -3.1485 O.2     1  UNL1       -0.5170
     28 O          22.7264   72.3773   -1.9284 O.3     1  UNL1       -0.2858
     29 O          23.0603   70.8958   -0.1138 O.3     1  UNL1       -0.3226
     30 O          20.2320   73.5279    1.4198 O.3     1  UNL1       -0.3794
     31 O          20.0384   72.5839   -1.3329 O.3     1  UNL1       -0.3775
     32 O          21.7996   71.4751    2.3989 O.3     1  UNL1       -0.3792
     33 C          21.3474   73.0823    0.6532 C.3     1  UNL1        0.1718
     34 C          20.9095   72.0184   -0.3590 C.3     1  UNL1        0.1968
     35 C          22.3997   72.5014    1.6016 C.3     1  UNL1        0.1723
     36 C          22.1257   71.4101   -1.0683 C.3     1  UNL1        0.2706
     37 C          23.5399   71.8898    0.7904 C.3     1  UNL1        0.1830
     38 H          20.5555   74.1967    2.0471 H       1  UNL1        0.2105
     39 H          19.7962   71.8775   -1.9552 H       1  UNL1        0.2106
     40 H          21.6625   70.6909    1.8408 H       1  UNL1        0.2106
     41 O          25.3630   72.0910    2.2531 O.co2   1  UNL1       -0.5466
     42 O          24.5802   69.9876    1.8531 O.co2   1  UNL1       -0.5466
     43 C          24.5282   71.1956    1.6726 C.2     1  UNL1        0.0799
@<TRIPOS>UNITY_ATOM_ATTR
41 1
charge -1
@<TRIPOS>BOND
     1     1     4    1
     2     1    24    1
     3     1     2    1
     4     1     3    2
     5    25    28    1
     6    25    24    1
     7    25    26    1
     8    25    27    2
     9     6    11    1
    10     6    12    1
    11    29    36    1
    12    29    37    1
    13     7     9    1
    14     7    13    1
    15     8    10    1
    16     8    14    1
    17     4     5    1
    18    28    36    1
    19    30    33    1
    20    30    38    1
    21    31    34    1
    22    31    39    1
    23    32    35    1
    24    32    40    1
    25    41    43   ar
    26    15    19    2
    27    42    43   ar
    28    16    22    2
    29    17    12    1
    30    17    19   ar
    31    17    20   ar
    32    18    19   ar
    33    18    22   ar
    34    18    23    1
    35     9    10    1
    36     9    11    1
    37    10    12    1
    38    11     5    1
    39    33    34    1
    40    33    35    1
    41    34    36    1
    42    35    37    1
    43    37    43    1
    44    20    21   ar
    45    21    22   ar
@<TRIPOS>MOLECULE
UDP-glaA
 43 45 0 0 0
SMALL
GASTEIGER

@<TRIPOS>ATOM
      1 P          23.4923   72.4381   -3.4408 P.3     1  UNL1        0.2189
      2 O          24.0998   70.9491   -3.2641 O.3     1  UNL1       -0.4371
      3 O          24.4791   73.4750   -3.8915 O.2     1  UNL1       -0.5170
      4 O          22.7609   72.7307   -2.0284 O.3     1  UNL1       -0.3112
      5 C          23.5519   72.7783   -0.8530 C.3     1  UNL1        0.1811
      6 O          24.5503   71.2496    0.7091 O.3     1  UNL1       -0.3308
      7 O          21.7756   70.2180    1.1866 O.3     1  UNL1       -0.3794
      8 O          22.1876   71.8379    3.3411 O.3     1  UNL1       -0.3779
      9 C          22.2108   71.5525    0.9268 C.3     1  UNL1        0.1713
     10 C          22.8891   72.1312    2.1506 C.3     1  UNL1        0.1895
     11 C          23.3584   71.4862   -0.0722 C.3     1  UNL1        0.1764
     12 C          24.2545   71.4671    2.0986 C.3     1  UNL1        0.2383
     13 H          21.3838   69.8759    0.3650 H       1  UNL1        0.2105
     14 H          21.2906   72.2027    3.2497 H       1  UNL1        0.2106
     15 O          26.9426   70.6610    2.4137 O.2     1  UNL1       -0.2464
     16 O          28.1188   74.6894    4.3182 O.2     1  UNL1       -0.2670
     17 N          25.2842   72.2851    2.6730 N.ar    1  UNL1       -0.2551
     18 N          27.5264   72.6673    3.3623 N.ar    1  UNL1       -0.2743
     19 C          26.6026   71.7852    2.7865 C.ar    1  UNL1        0.3323
     20 C          24.9834   73.5679    3.1172 C.ar    1  UNL1        0.0869
     21 C          25.8756   74.3969    3.6636 C.ar    1  UNL1        0.0795
     22 C          27.2745   73.9516    3.8193 C.ar    1  UNL1        0.2626
     23 H          28.4804   72.3289    3.4545 H       1  UNL1        0.1734
     24 O          22.2511   72.2054   -4.4510 O.3     1  UNL1       -0.2703
     25 P          20.8325   71.4616   -4.2341 P.3     1  UNL1        0.2208
     26 O          20.0836   72.3997   -3.1500 O.3     1  UNL1       -0.4371
     27 O          20.9485   70.0195   -3.8311 O.2     1  UNL1       -0.5170
     28 O          20.0277   71.7063   -5.6112 O.3     1  UNL1       -0.2858
     29 O          18.3800   70.0153   -5.4532 O.3     1  UNL1       -0.3226
     30 O          16.9992   72.2804   -8.6534 O.3     1  UNL1       -0.3794
     31 O          19.8431   71.7013   -8.3660 O.3     1  UNL1       -0.3775
     32 O          16.0458   70.1946   -7.1139 O.3     1  UNL1       -0.3792
     33 C          17.6291   71.9951   -7.4076 C.3     1  UNL1        0.1718
     34 C          18.8213   71.0548   -7.6145 C.3     1  UNL1        0.1968
     35 C          16.6055   71.3454   -6.4725 C.3     1  UNL1        0.1723
     36 C          19.3992   70.6057   -6.2667 C.3     1  UNL1        0.2706
     37 C          17.2958   70.9028   -5.1841 C.3     1  UNL1        0.1830
     38 H          16.2509   72.8751   -8.4744 H       1  UNL1        0.2105
     39 H          20.5782   71.0728   -8.4629 H       1  UNL1        0.2106
     40 H          16.7110   69.4856   -7.1115 H       1  UNL1        0.2106
     41 O          15.8695   70.9520   -3.3221 O.co2   1  UNL1       -0.5466
     42 O          16.0725   68.9656   -4.4222 O.co2   1  UNL1       -0.5466
     43 C          16.3611   70.1466   -4.2945 C.2     1  UNL1        0.0799
@<TRIPOS>UNITY_ATOM_ATTR
41 1
charge -1
@<TRIPOS>BOND
     1     1     4    1
     2     1    24    1
     3     1     2    1
     4     1     3    2
     5    25    28    1
     6    25    24    1
     7    25    26    1
     8    25    27    2
     9     6    11    1
    10     6    12    1
    11    29    36    1
    12    29    37    1
    13     7     9    1
    14     7    13    1
    15     8    10    1
    16     8    14    1
    17     4     5    1
    18    28    36    1
    19    30    33    1
    20    30    38    1
    21    31    34    1
    22    31    39    1
    23    32    35    1
    24    32    40    1
    25    41    43   ar
    26    15    19    2
    27    42    43   ar
    28    16    22    2
    29    17    12    1
    30    17    19   ar
    31    17    20   ar
    32    18    19   ar
    33    18    22   ar
    34    18    23    1
    35     9    10    1
    36     9    11    1
    37    10    12    1
    38    11     5    1
    39    33    34    1
    40    33    35    1
    41    34    36    1
    42    35    37    1
    43    37    43    1
    44    20    21   ar
    45    21    22   ar
@<TRIPOS>MOLECULE
UDP-glaA
 43 45 0 0 0
SMALL
GASTEIGER

@<TRIPOS>ATOM
      1 P          22.5562   72.7274   -4.2723 P.3     1  UNL1        0.2189
      2 O          24.1438   72.8125   -4.5718 O.3     1  UNL1       -0.4371
      3 O          21.9214   74.0204   -3.8513 O.2     1  UNL1       -0.5170
      4 O          22.4225   71.5042   -3.2228 O.3     1  UNL1       -0.3112
      5 C          21.5544   71.6560   -2.1126 C.3     1  UNL1        0.1811
      6 O          23.4490   71.5273   -0.6402 O.3     1  UNL1       -0.3308
      7 O          21.6517   70.0328    1.2380 O.3     1  UNL1       -0.3794
      8 O          21.6773   72.5410    2.3076 O.3     1  UNL1       -0.3779
      9 C          21.3428   71.1187    0.3644 C.3     1  UNL1        0.1713
     10 C          21.8996   72.4132    0.9184 C.3     1  UNL1        0.1895
     11 C          22.1564   70.9417   -0.9109 C.3     1  UNL1        0.1764
     12 C          23.3741   72.2968    0.5713 C.3     1  UNL1        0.2383
     13 H          21.3105   69.2218    0.8240 H       1  UNL1        0.2105
     14 H          20.7169   72.4975    2.4555 H       1  UNL1        0.2106
     15 O          24.9998   73.6312    2.4559 O.2     1  UNL1       -0.2464
     16 O          25.6754   77.1999   -0.3808 O.2     1  UNL1       -0.2670
     17 N          23.9880   73.5751    0.3515 N.ar    1  UNL1       -0.2551
     18 N          25.3347   75.4076    1.0423 N.ar    1  UNL1       -0.2743
     19 C          24.7856   74.1592    1.3632 C.ar    1  UNL1        0.3323
     20 C          23.7973   74.2372   -0.8563 C.ar    1  UNL1        0.0869
     21 C          24.3281   75.4269   -1.1473 C.ar    1  UNL1        0.0795
     22 C          25.1732   76.1054   -0.1447 C.ar    1  UNL1        0.2626
     23 H          25.9113   75.8467    1.7550 H       1  UNL1        0.1734
     24 O          21.9627   72.0995   -5.6393 O.3     1  UNL1       -0.2703
     25 P          20.8013   72.6273   -6.6318 P.3     1  UNL1        0.2208
     26 O          21.0434   71.7646   -7.9783 O.3     1  UNL1       -0.4371
     27 O          20.7984   74.1147   -6.8406 O.2     1  UNL1       -0.5170
     28 O          19.4334   72.0388   -6.0101 O.3     1  UNL1       -0.2858
     29 O          19.0222   70.2310   -4.5397 O.3     1  UNL1       -0.3226
     30 O          15.6990   70.0986   -7.0333 O.3     1  UNL1       -0.3794
     31 O          18.3502   70.6328   -8.1250 O.3     1  UNL1       -0.3775
     32 O          16.5088   68.8546   -4.7038 O.3     1  UNL1       -0.3792
     33 C          16.7677   70.6660   -6.2807 C.3     1  UNL1        0.1718
     34 C          18.1166   70.1597   -6.8027 C.3     1  UNL1        0.1968
     35 C          16.5969   70.2794   -4.8091 C.3     1  UNL1        0.1723
     36 C          19.2606   70.6271   -5.8943 C.3     1  UNL1        0.2706
     37 C          17.8068   70.7573   -4.0092 C.3     1  UNL1        0.1830
     38 H          14.8669   70.4441   -6.6675 H       1  UNL1        0.2105
     39 H          19.2167   70.2958   -8.4084 H       1  UNL1        0.2106
     40 H          17.3938   68.4789   -4.8479 H       1  UNL1        0.2106
     41 O          16.4766   70.3597   -2.1181 O.co2   1  UNL1       -0.5466
     42 O          18.7006   69.8915   -1.9400 O.co2   1  UNL1       -0.5466
     43 C          17.7446   70.2886   -2.5902 C.2     1  UNL1        0.0799
@<TRIPOS>UNITY_ATOM_ATTR
41 1
charge -1
@<TRIPOS>BOND
     1     1     4    1
     2     1    24    1
     3     1     2    1
     4     1     3    2
     5    25    28    1
     6    25    24    1
     7    25    26    1
     8    25    27    2
     9     6    11    1
    10     6    12    1
    11    29    36    1
    12    29    37    1
    13     7     9    1
    14     7    13    1
    15     8    10    1
    16     8    14    1
    17     4     5    1
    18    28    36    1
    19    30    33    1
    20    30    38    1
    21    31    34    1
    22    31    39    1
    23    32    35    1
    24    32    40    1
    25    41    43   ar
    26    15    19    2
    27    42    43   ar
    28    16    22    2
    29    17    12    1
    30    17    19   ar
    31    17    20   ar
    32    18    19   ar
    33    18    22   ar
    34    18    23    1
    35     9    10    1
    36     9    11    1
    37    10    12    1
    38    11     5    1
    39    33    34    1
    40    33    35    1
    41    34    36    1
    42    35    37    1
    43    37    43    1
    44    20    21   ar
    45    21    22   ar
@<TRIPOS>MOLECULE
UDP-glaA
 43 45 0 0 0
SMALL
GASTEIGER

@<TRIPOS>ATOM
      1 P          20.4175   74.4415   -3.0457 P.3     1  UNL1        0.2189
      2 O          20.2327   76.0451   -3.1538 O.3     1  UNL1       -0.4371
      3 O          21.6822   73.9078   -3.6523 O.2     1  UNL1       -0.5170
      4 O          19.0414   73.8486   -3.6542 O.3     1  UNL1       -0.3112
      5 C          18.9801   72.4684   -3.9712 C.3     1  UNL1        0.1811
      6 O          17.1081   72.0817   -5.4274 O.3     1  UNL1       -0.3308
      7 O          15.9265   70.4892   -3.1782 O.3     1  UNL1       -0.3794
      8 O          16.9128   68.5526   -4.8251 O.3     1  UNL1       -0.3779
      9 C          17.2906   70.6074   -3.5819 C.3     1  UNL1        0.1713
     10 C          17.5318   69.8220   -4.8538 C.3     1  UNL1        0.1895
     11 C          17.5212   72.0404   -4.0436 C.3     1  UNL1        0.1764
     12 C          16.9359   70.7386   -5.9087 C.3     1  UNL1        0.2383
     13 H          15.8106   71.0385   -2.3842 H       1  UNL1        0.2105
     14 H          17.2694   68.0703   -4.0593 H       1  UNL1        0.2106
     15 O          15.6019   70.7415   -8.3978 O.2     1  UNL1       -0.2464
     16 O          19.5499   70.2368  -10.7209 O.2     1  UNL1       -0.2670
     17 N          17.5902   70.6102   -7.1794 N.ar    1  UNL1       -0.2551
     18 N          17.5687   70.4896   -9.5530 N.ar    1  UNL1       -0.2743
     19 C          16.8282   70.6226   -8.3710 C.ar    1  UNL1        0.3323
     20 C          18.9728   70.4735   -7.2364 C.ar    1  UNL1        0.0869
     21 C          19.6642   70.3481   -8.3713 C.ar    1  UNL1        0.0795
     22 C          18.9438   70.3507   -9.6599 C.ar    1  UNL1        0.2626
     23 H          17.0415   70.4953  -10.4220 H       1  UNL1        0.1734
     24 O          20.2622   74.1649   -1.4599 O.3     1  UNL1       -0.2703
     25 P          20.7812   72.9404   -0.5414 P.3     1  UNL1        0.2208
     26 O          22.3730   72.9110   -0.8269 O.3     1  UNL1       -0.4371
     27 O          20.0809   71.6370   -0.7995 O.2     1  UNL1       -0.5170
     28 O          20.6478   73.4803    0.9734 O.3     1  UNL1       -0.2858
     29 O          21.6764   71.6864    2.1237 O.3     1  UNL1       -0.3226
     30 O          21.4648   74.6063    5.0748 O.3     1  UNL1       -0.3794
     31 O          19.2377   74.1922    3.2378 O.3     1  UNL1       -0.3775
     32 O          22.6347   72.1198    4.7944 O.3     1  UNL1       -0.3792
     33 C          21.6047   74.0500    3.7705 C.3     1  UNL1        0.1718
     34 C          20.3330   73.2928    3.3732 C.3     1  UNL1        0.1968
     35 C          22.8044   73.0987    3.7639 C.3     1  UNL1        0.1723
     36 C          20.5359   72.5480    2.0479 C.3     1  UNL1        0.2706
     37 C          22.8858   72.3846    2.4165 C.3     1  UNL1        0.1830
     38 H          22.2917   75.0728    5.2850 H       1  UNL1        0.2105
     39 H          18.4601   73.6704    2.9770 H       1  UNL1        0.2106
     40 H          21.9512   71.4890    4.5116 H       1  UNL1        0.2106
     41 O          24.6543   71.3844    1.2435 O.co2   1  UNL1       -0.5466
     42 O          24.2032   70.5779    3.3275 O.co2   1  UNL1       -0.5466
     43 C          23.9657   71.3499    2.4098 C.2     1  UNL1        0.0799
@<TRIPOS>UNITY_ATOM_ATTR
41 1
charge -1
@<TRIPOS>BOND
     1     1     4    1
     2     1    24    1
     3     1     2    1
     4     1     3    2
     5    25    28    1
     6    25    24    1
     7    25    26    1
     8    25    27    2
     9     6    11    1
    10     6    12    1
    11    29    36    1
    12    29    37    1
    13     7     9    1
    14     7    13    1
    15     8    10    1
    16     8    14    1
    17     4     5    1
    18    28    36    1
    19    30    33    1
    20    30    38    1
    21    31    34    1
    22    31    39    1
    23    32    35    1
    24    32    40    1
    25    41    43   ar
    26    15    19    2
    27    42    43   ar
    28    16    22    2
    29    17    12    1
    30    17    19   ar
    31    17    20   ar
    32    18    19   ar
    33    18    22   ar
    34    18    23    1
    35     9    10    1
    36     9    11    1
    37    10    12    1
    38    11     5    1
    39    33    34    1
    40    33    35    1
    41    34    36    1
    42    35    37    1
    43    37    43    1
    44    20    21   ar
    45    21    22   ar
@<TRIPOS>MOLECULE
UDP-glaA
 43 45 0 0 0
SMALL
GASTEIGER

@<TRIPOS>ATOM
      1 P          22.1859   75.5144   -4.8287 P.3     1  UNL1        0.2189
      2 O          21.4514   76.8495   -4.2851 O.3     1  UNL1       -0.4371
      3 O          23.2181   75.7484   -5.8926 O.2     1  UNL1       -0.5170
      4 O          20.9643   74.5366   -5.2375 O.3     1  UNL1       -0.3112
      5 C          20.9748   73.2027   -4.7582 C.3     1  UNL1        0.1811
      6 O          20.4895   70.9888   -5.5566 O.3     1  UNL1       -0.3308
      7 O          20.8663   72.1031   -8.3148 O.3     1  UNL1       -0.3794
      8 O          18.1515   72.0226   -8.0708 O.3     1  UNL1       -0.3779
      9 C          20.2954   72.7207   -7.1614 C.3     1  UNL1        0.1713
     10 C          18.9170   72.1556   -6.8910 C.3     1  UNL1        0.1895
     11 C          21.0773   72.2511   -5.9416 C.3     1  UNL1        0.1764
     12 C          19.2444   70.8162   -6.2532 C.3     1  UNL1        0.2383
     13 H          21.7612   72.4671   -8.4254 H       1  UNL1        0.2105
     14 H          18.0801   72.9048   -8.4743 H       1  UNL1        0.2106
     15 O          16.8245   69.5508   -6.9734 O.2     1  UNL1       -0.2464
     16 O          15.4658   69.2426   -2.5805 O.2     1  UNL1       -0.2670
     17 N          18.2407   70.3941   -5.3185 N.ar    1  UNL1       -0.2551
     18 N          16.1493   69.3987   -4.7855 N.ar    1  UNL1       -0.2743
     19 C          17.0604   69.7685   -5.7836 C.ar    1  UNL1        0.3323
     20 C          18.4307   70.6014   -3.9567 C.ar    1  UNL1        0.0869
     21 C          17.5527   70.2426   -3.0175 C.ar    1  UNL1        0.0795
     22 C          16.2939   69.5842   -3.4193 C.ar    1  UNL1        0.2626
     23 H          15.2932   68.9477   -5.0968 H       1  UNL1        0.1734
     24 O          22.7554   74.8375   -3.4749 O.3     1  UNL1       -0.2703
     25 P          24.2700   74.5476   -2.9906 P.3     1  UNL1        0.2208
     26 O          24.7781   75.9941   -2.4753 O.3     1  UNL1       -0.4371
     27 O          25.1431   73.9214   -4.0401 O.2     1  UNL1       -0.5170
     28 O          24.1084   73.6689   -1.6468 O.3     1  UNL1       -0.2858
     29 O          22.1401   73.0501   -0.4882 O.3     1  UNL1       -0.3226
     30 O          24.9135   73.3326    2.5953 O.3     1  UNL1       -0.3794
     31 O          24.8875   75.2986    0.4413 O.3     1  UNL1       -0.3775
     32 O          22.3114   72.4498    2.3134 O.3     1  UNL1       -0.3792
     33 C          24.4085   73.0718    1.2887 C.3     1  UNL1        0.1718
     34 C          23.8460   74.3546    0.6672 C.3     1  UNL1        0.1968
     35 C          23.3089   72.0107    1.3855 C.3     1  UNL1        0.1723
     36 C          23.1472   74.0520   -0.6642 C.3     1  UNL1        0.2706
     37 C          22.6576   71.8204    0.0174 C.3     1  UNL1        0.1830
     38 H          25.2560   72.4946    2.9502 H       1  UNL1        0.2105
     39 H          24.4862   76.0876    0.0396 H       1  UNL1        0.2106
     40 H          21.7908   73.1566    1.8958 H       1  UNL1        0.2106
     41 O          21.6192   70.0442    1.1447 O.co2   1  UNL1       -0.5466
     42 O          20.5469   70.8812   -0.6847 O.co2   1  UNL1       -0.5466
     43 C          21.4912   70.8871    0.0917 C.2     1  UNL1        0.0799
@<TRIPOS>UNITY_ATOM_ATTR
41 1
charge -1
@<TRIPOS>BOND
     1     1     4    1
     2     1    24    1
     3     1     2    1
     4     1     3    2
     5    25    28    1
     6    25    24    1
     7    25    26    1
     8    25    27    2
     9     6    11    1
    10     6    12    1
    11    29    36    1
    12    29    37    1
    13     7     9    1
    14     7    13    1
    15     8    10    1
    16     8    14    1
    17     4     5    1
    18    28    36    1
    19    30    33    1
    20    30    38    1
    21    31    34    1
    22    31    39    1
    23    32    35    1
    24    32    40    1
    25    41    43   ar
    26    15    19    2
    27    42    43   ar
    28    16    22    2
    29    17    12    1
    30    17    19   ar
    31    17    20   ar
    32    18    19   ar
    33    18    22   ar
    34    18    23    1
    35     9    10    1
    36     9    11    1
    37    10    12    1
    38    11     5    1
    39    33    34    1
    40    33    35    1
    41    34    36    1
    42    35    37    1
    43    37    43    1
    44    20    21   ar
    45    21    22   ar
@<TRIPOS>MOLECULE
UDP-glaA
 43 45 0 0 0
SMALL
GASTEIGER

@<TRIPOS>ATOM
      1 P          23.0876   72.8625   -4.0100 P.3     1  UNL1        0.2189
      2 O          23.4915   73.9625   -5.1254 O.3     1  UNL1       -0.4371
      3 O          24.1440   71.8366   -3.7211 O.2     1  UNL1       -0.5170
      4 O          21.6692   72.2840   -4.5288 O.3     1  UNL1       -0.3112
      5 C          20.5437   73.1457   -4.5244 C.3     1  UNL1        0.1811
      6 O          19.7491   72.4321   -6.6770 O.3     1  UNL1       -0.3308
      7 O          19.3229   75.3392   -7.2755 O.3     1  UNL1       -0.3794
      8 O          16.8070   74.4815   -6.6667 O.3     1  UNL1       -0.3779
      9 C          19.1523   74.6360   -6.0451 C.3     1  UNL1        0.1713
     10 C          17.8973   73.7903   -6.0931 C.3     1  UNL1        0.1895
     11 C          20.2453   73.5793   -5.9526 C.3     1  UNL1        0.1764
     12 C          18.3459   72.6069   -6.9336 C.3     1  UNL1        0.2383
     13 H          20.1571   75.8349   -7.2128 H       1  UNL1        0.2105
     14 H          16.6539   75.2806   -6.1336 H       1  UNL1        0.2106
     15 O          15.9415   71.7475   -8.1400 O.2     1  UNL1       -0.2464
     16 O          15.7791   67.9485   -5.5360 O.2     1  UNL1       -0.2670
     17 N          17.6540   71.3973   -6.5908 N.ar    1  UNL1       -0.2551
     18 N          15.8619   69.8566   -6.8422 N.ar    1  UNL1       -0.2743
     19 C          16.4530   71.0575   -7.2562 C.ar    1  UNL1        0.3323
     20 C          18.1661   70.5617   -5.6045 C.ar    1  UNL1        0.0869
     21 C          17.5910   69.4196   -5.2213 C.ar    1  UNL1        0.0795
     22 C          16.3332   68.9926   -5.8658 C.ar    1  UNL1        0.2626
     23 H          14.9972   69.5925   -7.3064 H       1  UNL1        0.1734
     24 O          22.6665   73.7715   -2.7405 O.3     1  UNL1       -0.2703
     25 P          22.2435   73.3602   -1.2356 P.3     1  UNL1        0.2208
     26 O          22.1110   71.7501   -1.3144 O.3     1  UNL1       -0.4371
     27 O          21.0148   74.0593   -0.7283 O.2     1  UNL1       -0.5170
     28 O          23.5696   73.6182   -0.3531 O.3     1  UNL1       -0.2858
     29 O          22.6831   74.0205    1.8036 O.3     1  UNL1       -0.3226
     30 O          21.4627   70.1142    1.0750 O.3     1  UNL1       -0.3794
     31 O          24.1347   70.9986    0.3108 O.3     1  UNL1       -0.3775
     32 O          20.9755   72.0428    2.9916 O.3     1  UNL1       -0.3792
     33 C          21.8001   71.4699    0.7946 C.3     1  UNL1        0.1718
     34 C          23.2640   71.7421    1.1569 C.3     1  UNL1        0.1968
     35 C          20.8805   72.3870    1.6055 C.3     1  UNL1        0.1723
     36 C          23.5886   73.2350    1.0212 C.3     1  UNL1        0.2706
     37 C          21.3185   73.8393    1.4287 C.3     1  UNL1        0.1830
     38 H          20.5293   69.9882    0.8333 H       1  UNL1        0.2105
     39 H          25.0473   71.2099    0.5706 H       1  UNL1        0.2106
     40 H          21.8292   72.3609    3.3311 H       1  UNL1        0.2106
     41 O          19.3190   75.0220    1.7556 O.co2   1  UNL1       -0.5466
     42 O          20.9146   75.2136    3.3724 O.co2   1  UNL1       -0.5466
     43 C          20.5293   74.7594    2.3049 C.2     1  UNL1        0.0799
@<TRIPOS>UNITY_ATOM_ATTR
41 1
charge -1
@<TRIPOS>BOND
     1     1     4    1
     2     1    24    1
     3     1     2    1
     4     1     3    2
     5    25    28    1
     6    25    24    1
     7    25    26    1
     8    25    27    2
     9     6    11    1
    10     6    12    1
    11    29    36    1
    12    29    37    1
    13     7     9    1
    14     7    13    1
    15     8    10    1
    16     8    14    1
    17     4     5    1
    18    28    36    1
    19    30    33    1
    20    30    38    1
    21    31    34    1
    22    31    39    1
    23    32    35    1
    24    32    40    1
    25    41    43   ar
    26    15    19    2
    27    42    43   ar
    28    16    22    2
    29    17    12    1
    30    17    19   ar
    31    17    20   ar
    32    18    19   ar
    33    18    22   ar
    34    18    23    1
    35     9    10    1
    36     9    11    1
    37    10    12    1
    38    11     5    1
    39    33    34    1
    40    33    35    1
    41    34    36    1
    42    35    37    1
    43    37    43    1
    44    20    21   ar
    45    21    22   ar
@<TRIPOS>MOLECULE
UDP-glaA
 43 45 0 0 0
SMALL
GASTEIGER

@<TRIPOS>ATOM
      1 P          23.4136   72.2992   -3.3662 P.3     1  UNL1        0.2189
      2 O          24.1618   70.8902   -3.0972 O.3     1  UNL1       -0.4371
      3 O          24.2611   73.3512   -4.0198 O.2     1  UNL1       -0.5170
      4 O          22.7927   72.6920   -1.9254 O.3     1  UNL1       -0.3112
      5 C          23.6385   72.6491   -0.7888 C.3     1  UNL1        0.1811
      6 O          24.6310   70.9633    0.6067 O.3     1  UNL1       -0.3308
      7 O          21.8289   70.1765    1.3283 O.3     1  UNL1       -0.3794
      8 O          22.6081   71.6500    3.4864 O.3     1  UNL1       -0.3779
      9 C          22.3653   71.4746    1.0737 C.3     1  UNL1        0.1713
     10 C          23.2144   71.9303    2.2416 C.3     1  UNL1        0.1895
     11 C          23.3969   71.3465   -0.0394 C.3     1  UNL1        0.1764
     12 C          24.4961   71.1437    2.0261 C.3     1  UNL1        0.2383
     13 H          21.3263   69.9107    0.5394 H       1  UNL1        0.2105
     14 H          21.7466   72.1014    3.5006 H       1  UNL1        0.2106
     15 O          24.5181   73.8533    2.8217 O.2     1  UNL1       -0.2464
     16 O          28.9937   73.6878    3.9080 O.2     1  UNL1       -0.2670
     17 N          25.6528   71.8340    2.5212 N.ar    1  UNL1       -0.2551
     18 N          26.7469   73.7693    3.3616 N.ar    1  UNL1       -0.2743
     19 C          25.5577   73.1954    2.8930 C.ar    1  UNL1        0.3323
     20 C          26.8651   71.1626    2.6341 C.ar    1  UNL1        0.0869
     21 C          27.9900   71.7236    3.0832 C.ar    1  UNL1        0.0795
     22 C          27.9765   73.1423    3.4914 C.ar    1  UNL1        0.2626
     23 H          26.7023   74.7475    3.6342 H       1  UNL1        0.1734
     24 O          22.1097   71.8606   -4.2162 O.3     1  UNL1       -0.2703
     25 P          21.4663   72.4775   -5.5646 P.3     1  UNL1        0.2208
     26 O          22.5296   72.0578   -6.7088 O.3     1  UNL1       -0.4371
     27 O          21.1814   73.9504   -5.4932 O.2     1  UNL1       -0.5170
     28 O          20.1703   71.5612   -5.8555 O.3     1  UNL1       -0.2858
     29 O          18.9703   71.8738   -7.8709 O.3     1  UNL1       -0.3226
     30 O          16.2586   69.7247   -5.5672 O.3     1  UNL1       -0.3794
     31 O          17.8589   71.8508   -4.3735 O.3     1  UNL1       -0.3775
     32 O          16.4353   70.5665   -8.1921 O.3     1  UNL1       -0.3792
     33 C          17.5207   70.1486   -6.0749 C.3     1  UNL1        0.1718
     34 C          17.7451   71.6348   -5.7761 C.3     1  UNL1        0.1968
     35 C          17.5525   69.9076   -7.5867 C.3     1  UNL1        0.1723
     36 C          19.0181   72.1413   -6.4655 C.3     1  UNL1        0.2706
     37 C          18.8396   70.4852   -8.1714 C.3     1  UNL1        0.1830
     38 H          16.1584   68.7813   -5.7806 H       1  UNL1        0.2105
     39 H          18.0090   72.8010   -4.2343 H       1  UNL1        0.2106
     40 H          16.6065   71.5235   -8.1969 H       1  UNL1        0.2106
     41 O          17.9625   69.4622  -10.0918 O.co2   1  UNL1       -0.5466
     42 O          19.5679   71.0506  -10.4029 O.co2   1  UNL1       -0.5466
     43 C          18.8546   70.3878   -9.6638 C.2     1  UNL1        0.0799
@<TRIPOS>UNITY_ATOM_ATTR
41 1
charge -1
@<TRIPOS>BOND
     1     1     4    1
     2     1    24    1
     3     1     2    1
     4     1     3    2
     5    25    28    1
     6    25    24    1
     7    25    26    1
     8    25    27    2
     9     6    11    1
    10     6    12    1
    11    29    36    1
    12    29    37    1
    13     7     9    1
    14     7    13    1
    15     8    10    1
    16     8    14    1
    17     4     5    1
    18    28    36    1
    19    30    33    1
    20    30    38    1
    21    31    34    1
    22    31    39    1
    23    32    35    1
    24    32    40    1
    25    41    43   ar
    26    15    19    2
    27    42    43   ar
    28    16    22    2
    29    17    12    1
    30    17    19   ar
    31    17    20   ar
    32    18    19   ar
    33    18    22   ar
    34    18    23    1
    35     9    10    1
    36     9    11    1
    37    10    12    1
    38    11     5    1
    39    33    34    1
    40    33    35    1
    41    34    36    1
    42    35    37    1
    43    37    43    1
    44    20    21   ar
    45    21    22   ar
