@<TRIPOS>MOLECULE
*****
 43 45 0 0 0
SMALL
GASTEIGER

@<TRIPOS>ATOM
      1 P          22.4972   71.4446   -2.1574 P.3     1  UNL1        0.2189
      2 O          21.4794   72.6728   -1.8843 O.co2   1  UNL1       -0.4371
      3 O          23.5284   71.7000   -3.2172 O.2     1  UNL1       -0.5170
      4 O          21.5204   70.1812   -2.4175 O.3     1  UNL1       -0.3112
      5 C          20.7772   70.1378   -3.6217 C.3     1  UNL1        0.1811
      6 O          19.0973   71.5528   -4.5981 O.3     1  UNL1       -0.3308
      7 O          17.2563   70.5231   -2.4669 O.3     1  UNL1       -0.3794
      8 O          16.5185   69.0626   -4.6483 O.3     1  UNL1       -0.3779
      9 C          18.2903   69.8395   -3.1755 C.3     1  UNL1        0.1713
     10 C          17.8461   69.5409   -4.5917 C.3     1  UNL1        0.1895
     11 C          19.4333   70.8199   -3.4001 C.3     1  UNL1        0.1764
     12 C          18.0099   70.8927   -5.2653 C.3     1  UNL1        0.2383
     13 H          16.5148   69.9167   -2.3117 H       1  UNL1        0.2105
     14 H          16.4665   68.1999   -4.2066 H       1  UNL1        0.2106
     15 O          16.0954   70.4536   -7.2946 O.2     1  UNL1       -0.2464
     16 O          19.3186   70.4577  -10.5893 O.2     1  UNL1       -0.2670
     17 N          18.3213   70.7750   -6.6617 N.ar    1  UNL1       -0.2551
     18 N          17.7027   70.4551   -8.9335 N.ar    1  UNL1       -0.2743
     19 C          17.2852   70.5548   -7.5998 C.ar    1  UNL1        0.3323
     20 C          19.6392   70.8793   -7.0896 C.ar    1  UNL1        0.0869
     21 C          20.0217   70.7823   -8.3644 C.ar    1  UNL1        0.0795
     22 C          19.0010   70.5514   -9.4076 C.ar    1  UNL1        0.2626
     23 H          16.9993   70.2997   -9.6047 H       1  UNL1        0.1734
     24 O          23.1014   71.1407   -0.6893 O.3     1  UNL1       -0.2703
     25 P          22.4580   70.3872    0.5881 P.3     1  UNL1        0.2208
     26 O          23.7445   70.0738    1.5193 O.co2   1  UNL1       -0.4371
     27 O          21.6367   69.1792    0.2413 O.2     1  UNL1       -0.5170
     28 O          21.6530   71.5392    1.3802 O.3     1  UNL1       -0.2858
     29 O          22.2226   73.8355    1.2714 O.3     1  UNL1       -0.3226
     30 O          20.1280   73.6564    4.8279 O.3     1  UNL1       -0.3794
     31 O          22.0480   71.5669    4.1332 O.3     1  UNL1       -0.3775
     32 O          18.8813   74.7823    2.4553 O.3     1  UNL1       -0.3792
     33 C          20.4587   73.2836    3.4901 C.3     1  UNL1        0.1718
     34 C          21.9082   72.8001    3.4371 C.3     1  UNL1        0.1968
     35 C          20.2748   74.5129    2.5975 C.3     1  UNL1        0.1723
     36 C          22.3692   72.6108    1.9913 C.3     1  UNL1        0.2706
     37 C          20.8722   74.2892    1.2113 C.3     1  UNL1        0.1830
     38 H          20.2376   72.8907    5.4136 H       1  UNL1        0.2105
     39 H          21.7569   71.6797    5.0514 H       1  UNL1        0.2106
     40 H          18.4889   74.9264    3.3306 H       1  UNL1        0.2106
     41 O          22.0524   75.5593   -0.3684 O.co2   1  UNL1       -0.5466
     42 O          20.2233   76.5280    0.5881 O.co2   1  UNL1       -0.5466
     43 C          20.9849   75.5802    0.4676 C.2     1  UNL1        0.0799
@<TRIPOS>UNITY_ATOM_ATTR
2 1
charge -1
26 1
charge -1
41 1
charge -1
@<TRIPOS>BOND
     1     1     4    1
     2     1    24    1
     3     1     2    1
     4     1     3    2
     5    25    28    1
     6    25    24    1
     7    25    26    1
     8    25    27    2
     9     6    11    1
    10     6    12    1
    11    29    36    1
    12    29    37    1
    13     7     9    1
    14     7    13    1
    15     8    10    1
    16     8    14    1
    17     4     5    1
    18    28    36    1
    19    30    33    1
    20    30    38    1
    21    31    34    1
    22    31    39    1
    23    32    35    1
    24    32    40    1
    25    41    43   ar
    26    15    19    2
    27    42    43   ar
    28    16    22    2
    29    17    12    1
    30    17    19   ar
    31    17    20   ar
    32    18    19   ar
    33    18    22   ar
    34    18    23    1
    35     9    10    1
    36     9    11    1
    37    10    12    1
    38    11     5    1
    39    33    34    1
    40    33    35    1
    41    34    36    1
    42    35    37    1
    43    37    43    1
    44    20    21   ar
    45    21    22   ar
@<TRIPOS>MOLECULE
*****
 43 45 0 0 0
SMALL
GASTEIGER

@<TRIPOS>ATOM
      1 P          22.9519   71.6122   -2.5948 P.3     1  UNL1        0.2189
      2 O          23.7082   72.9596   -3.0759 O.co2   1  UNL1       -0.4371
      3 O          23.4154   70.3519   -3.2648 O.2     1  UNL1       -0.5170
      4 O          21.3823   71.9643   -2.7692 O.3     1  UNL1       -0.3112
      5 C          20.5961   71.1468   -3.6167 C.3     1  UNL1        0.1811
      6 O          18.6983   72.0787   -4.7602 O.3     1  UNL1       -0.3308
      7 O          17.0332   70.9175   -2.5533 O.3     1  UNL1       -0.3794
      8 O          16.6817   69.1202   -4.5737 O.3     1  UNL1       -0.3779
      9 C          18.2078   70.3917   -3.1714 C.3     1  UNL1        0.1713
     10 C          17.8819   69.8642   -4.5526 C.3     1  UNL1        0.1895
     11 C          19.1351   71.5576   -3.4862 C.3     1  UNL1        0.1764
     12 C          17.7908   71.1442   -5.3657 C.3     1  UNL1        0.2383
     13 H          16.4253   70.1910   -2.3428 H       1  UNL1        0.2105
     14 H          16.7908   68.3154   -4.0424 H       1  UNL1        0.2106
     15 O          15.9899   70.4635   -7.4321 O.2     1  UNL1       -0.2464
     16 O          19.3452   70.4243  -10.5919 O.2     1  UNL1       -0.2670
     17 N          18.1669   70.9501   -6.7374 N.ar    1  UNL1       -0.2551
     18 N          17.6630   70.4436   -9.0037 N.ar    1  UNL1       -0.2743
     19 C          17.1846   70.6097   -7.6973 C.ar    1  UNL1        0.3323
     20 C          19.4945   71.0984   -7.1203 C.ar    1  UNL1        0.0869
     21 C          19.9353   70.9369   -8.3694 C.ar    1  UNL1        0.0795
     22 C          18.9733   70.5797   -9.4327 C.ar    1  UNL1        0.2626
     23 H          16.9979   70.2044   -9.6891 H       1  UNL1        0.1734
     24 O          23.1536   71.6357   -0.9912 O.3     1  UNL1       -0.2703
     25 P          22.4976   70.7277    0.1745 P.3     1  UNL1        0.2208
     26 O          23.6120   69.5797    0.4205 O.co2   1  UNL1       -0.4371
     27 O          21.1295   70.2018   -0.1510 O.2     1  UNL1       -0.5170
     28 O          22.5635   71.6492    1.4970 O.3     1  UNL1       -0.2858
     29 O          21.5034   72.4372    3.4628 O.3     1  UNL1       -0.3226
     30 O          21.3226   75.7635    1.0191 O.3     1  UNL1       -0.3794
     31 O          20.7730   73.1037   -0.0570 O.3     1  UNL1       -0.3775
     32 O          23.2525   75.6510    3.1902 O.3     1  UNL1       -0.3792
     33 C          21.8814   74.5569    1.5386 C.3     1  UNL1        0.1718
     34 C          20.8981   73.4053    1.3279 C.3     1  UNL1        0.1968
     35 C          22.1475   74.7632    3.0314 C.3     1  UNL1        0.1723
     36 C          21.3578   72.1504    2.0714 C.3     1  UNL1        0.2706
     37 C          22.4770   73.4451    3.7260 C.3     1  UNL1        0.1830
     38 H          21.1450   75.6560    0.0714 H       1  UNL1        0.2105
     39 H          20.4819   73.8956   -0.5349 H       1  UNL1        0.2106
     40 H          23.0557   76.4939    2.7524 H       1  UNL1        0.2106
     41 O          23.5545   74.1457    5.6880 O.co2   1  UNL1       -0.5466
     42 O          21.4584   73.2753    5.9065 O.co2   1  UNL1       -0.5466
     43 C          22.4101   73.5967    5.2108 C.2     1  UNL1        0.0799
@<TRIPOS>UNITY_ATOM_ATTR
2 1
charge -1
26 1
charge -1
41 1
charge -1
@<TRIPOS>BOND
     1     1     4    1
     2     1    24    1
     3     1     2    1
     4     1     3    2
     5    25    28    1
     6    25    24    1
     7    25    26    1
     8    25    27    2
     9     6    11    1
    10     6    12    1
    11    29    36    1
    12    29    37    1
    13     7     9    1
    14     7    13    1
    15     8    10    1
    16     8    14    1
    17     4     5    1
    18    28    36    1
    19    30    33    1
    20    30    38    1
    21    31    34    1
    22    31    39    1
    23    32    35    1
    24    32    40    1
    25    41    43   ar
    26    15    19    2
    27    42    43   ar
    28    16    22    2
    29    17    12    1
    30    17    19   ar
    31    17    20   ar
    32    18    19   ar
    33    18    22   ar
    34    18    23    1
    35     9    10    1
    36     9    11    1
    37    10    12    1
    38    11     5    1
    39    33    34    1
    40    33    35    1
    41    34    36    1
    42    35    37    1
    43    37    43    1
    44    20    21   ar
    45    21    22   ar
@<TRIPOS>MOLECULE
*****
 43 45 0 0 0
SMALL
GASTEIGER

@<TRIPOS>ATOM
      1 P          22.8397   72.1121   -3.3276 P.3     1  UNL1        0.2189
      2 O          23.7312   72.9460   -4.3900 O.co2   1  UNL1       -0.4371
      3 O          23.5811   71.0434   -2.5793 O.2     1  UNL1       -0.5170
      4 O          21.5699   71.6099   -4.1955 O.3     1  UNL1       -0.3112
      5 C          20.7225   70.6193   -3.6431 C.3     1  UNL1        0.1811
      6 O          18.9457   71.8380   -4.7086 O.3     1  UNL1       -0.3308
      7 O          17.1693   70.7823   -2.5358 O.3     1  UNL1       -0.3794
      8 O          16.5757   69.1488   -4.6370 O.3     1  UNL1       -0.3779
      9 C          18.2627   70.1463   -3.1979 C.3     1  UNL1        0.1713
     10 C          17.8600   69.7351   -4.5982 C.3     1  UNL1        0.1895
     11 C          19.3259   71.2019   -3.4692 C.3     1  UNL1        0.1764
     12 C          17.9224   71.0564   -5.3452 C.3     1  UNL1        0.2383
     13 H          16.4771   70.1275   -2.3519 H       1  UNL1        0.2105
     14 H          16.5881   68.3104   -4.1481 H       1  UNL1        0.2106
     15 O          16.0519   70.4742   -7.3796 O.2     1  UNL1       -0.2464
     16 O          19.3230   70.4290  -10.6265 O.2     1  UNL1       -0.2670
     17 N          18.2580   70.8874   -6.7307 N.ar    1  UNL1       -0.2551
     18 N          17.6830   70.4512   -8.9946 N.ar    1  UNL1       -0.2743
     19 C          17.2428   70.5965   -7.6725 C.ar    1  UNL1        0.3323
     20 C          19.5787   71.0113   -7.1445 C.ar    1  UNL1        0.0869
     21 C          19.9830   70.8701   -8.4084 C.ar    1  UNL1        0.0795
     22 C          18.9851   70.5646   -9.4545 C.ar    1  UNL1        0.2626
     23 H          16.9946   70.2465   -9.6680 H       1  UNL1        0.1734
     24 O          22.2072   73.2714   -2.3955 O.3     1  UNL1       -0.2703
     25 P          22.9138   74.4212   -1.5054 P.3     1  UNL1        0.2208
     26 O          22.3590   75.7919   -2.1638 O.co2   1  UNL1       -0.4371
     27 O          24.4109   74.3237   -1.4495 O.2     1  UNL1       -0.5170
     28 O          22.1832   74.3342   -0.0697 O.3     1  UNL1       -0.2858
     29 O          21.2454   72.1606   -0.1410 O.3     1  UNL1       -0.3226
     30 O          20.6281   73.2135    3.8060 O.3     1  UNL1       -0.3794
     31 O          20.1704   75.1506    1.6676 O.3     1  UNL1       -0.3775
     32 O          22.7413   71.3432    3.1080 O.3     1  UNL1       -0.3792
     33 C          21.3106   73.2003    2.5522 C.3     1  UNL1        0.1718
     34 C          20.3936   73.7600    1.4644 C.3     1  UNL1        0.1968
     35 C          21.6898   71.7520    2.2353 C.3     1  UNL1        0.1723
     36 C          21.0002   73.5506    0.0763 C.3     1  UNL1        0.2706
     37 C          22.1671   71.6037    0.7936 C.3     1  UNL1        0.1830
     38 H          20.3772   74.1239    4.0282 H       1  UNL1        0.2105
     39 H          19.7858   75.2908    2.5467 H       1  UNL1        0.2106
     40 H          22.4505   71.4328    4.0290 H       1  UNL1        0.2106
     41 O          21.0947   69.8128   -0.2760 O.co2   1  UNL1       -0.5466
     42 O          23.1422   69.4021    0.6396 O.co2   1  UNL1       -0.5466
     43 C          22.2183   70.1641    0.3971 C.2     1  UNL1        0.0799
@<TRIPOS>UNITY_ATOM_ATTR
2 1
charge -1
26 1
charge -1
41 1
charge -1
@<TRIPOS>BOND
     1     1     4    1
     2     1    24    1
     3     1     2    1
     4     1     3    2
     5    25    28    1
     6    25    24    1
     7    25    26    1
     8    25    27    2
     9     6    11    1
    10     6    12    1
    11    29    36    1
    12    29    37    1
    13     7     9    1
    14     7    13    1
    15     8    10    1
    16     8    14    1
    17     4     5    1
    18    28    36    1
    19    30    33    1
    20    30    38    1
    21    31    34    1
    22    31    39    1
    23    32    35    1
    24    32    40    1
    25    41    43   ar
    26    15    19    2
    27    42    43   ar
    28    16    22    2
    29    17    12    1
    30    17    19   ar
    31    17    20   ar
    32    18    19   ar
    33    18    22   ar
    34    18    23    1
    35     9    10    1
    36     9    11    1
    37    10    12    1
    38    11     5    1
    39    33    34    1
    40    33    35    1
    41    34    36    1
    42    35    37    1
    43    37    43    1
    44    20    21   ar
    45    21    22   ar
@<TRIPOS>MOLECULE
*****
 43 45 0 0 0
SMALL
GASTEIGER

@<TRIPOS>ATOM
      1 P          21.6501   73.7458   -5.7205 P.3     1  UNL1        0.2189
      2 O          20.5471   74.4012   -4.7342 O.co2   1  UNL1       -0.4371
      3 O          22.7702   74.6625   -6.1166 O.2     1  UNL1       -0.5170
      4 O          20.7724   73.1419   -6.9383 O.3     1  UNL1       -0.3112
      5 C          21.4483   72.5162   -8.0135 C.3     1  UNL1        0.1811
      6 O          19.9353   70.6640   -8.2539 O.3     1  UNL1       -0.3308
      7 O          18.6051   72.2707  -10.4082 O.3     1  UNL1       -0.3794
      8 O          16.9471   72.6451   -8.2758 O.3     1  UNL1       -0.3779
      9 C          19.2001   72.7129   -9.1879 C.3     1  UNL1        0.1713
     10 C          18.3072   72.3686   -8.0146 C.3     1  UNL1        0.1895
     11 C          20.4242   71.8476   -8.9214 C.3     1  UNL1        0.1764
     12 C          18.5786   70.8845   -7.8366 C.3     1  UNL1        0.2383
     13 H          17.8207   72.8090  -10.5995 H       1  UNL1        0.2105
     14 H          16.8262   73.6023   -8.3810 H       1  UNL1        0.2106
     15 O          16.1218   70.1771   -6.6366 O.2     1  UNL1       -0.2464
     16 O          18.1465   69.2743   -2.5956 O.2     1  UNL1       -0.2670
     17 N          18.4350   70.4609   -6.4725 N.ar    1  UNL1       -0.2551
     18 N          17.1324   69.7291   -4.6248 N.ar    1  UNL1       -0.2743
     19 C          17.1557   70.1282   -5.9677 C.ar    1  UNL1        0.3323
     20 C          19.5526   70.3768   -5.6510 C.ar    1  UNL1        0.0869
     21 C          19.5146   69.9947   -4.3731 C.ar    1  UNL1        0.0795
     22 C          18.2167   69.6306   -3.7680 C.ar    1  UNL1        0.2626
     23 H          16.2526   69.4945   -4.2503 H       1  UNL1        0.1734
     24 O          22.1151   72.4227   -4.9167 O.3     1  UNL1       -0.2703
     25 P          23.0021   72.2522   -3.5759 P.3     1  UNL1        0.2208
     26 O          24.2062   73.3124   -3.7918 O.co2   1  UNL1       -0.4371
     27 O          23.4564   70.8457   -3.3128 O.2     1  UNL1       -0.5170
     28 O          22.0993   72.8946   -2.4035 O.3     1  UNL1       -0.2858
     29 O          21.4022   71.1330   -0.9823 O.3     1  UNL1       -0.3226
     30 O          19.6533   74.4117    0.8231 O.3     1  UNL1       -0.3794
     31 O          19.6301   74.1347   -2.0850 O.3     1  UNL1       -0.3775
     32 O          22.0261   73.1990    1.9849 O.3     1  UNL1       -0.3792
     33 C          20.6482   73.7117    0.0761 C.3     1  UNL1        0.1718
     34 C          20.0161   73.1082   -1.1784 C.3     1  UNL1        0.1968
     35 C          21.2195   72.6073    0.9682 C.3     1  UNL1        0.1723
     36 C          20.9913   72.1632   -1.8819 C.3     1  UNL1        0.2706
     37 C          22.0800   71.6339    0.1678 C.3     1  UNL1        0.1830
     38 H          19.2759   75.1186    0.2762 H       1  UNL1        0.2105
     39 H          19.0115   74.7382   -1.6452 H       1  UNL1        0.2106
     40 H          21.4903   73.8209    2.5016 H       1  UNL1        0.2106
     41 O          23.0348   70.6974    2.0946 O.co2   1  UNL1       -0.5466
     42 O          22.0220   69.2677    0.6355 O.co2   1  UNL1       -0.5466
     43 C          22.3576   70.3972    0.9588 C.2     1  UNL1        0.0799
@<TRIPOS>UNITY_ATOM_ATTR
2 1
charge -1
26 1
charge -1
41 1
charge -1
@<TRIPOS>BOND
     1     1     4    1
     2     1    24    1
     3     1     2    1
     4     1     3    2
     5    25    28    1
     6    25    24    1
     7    25    26    1
     8    25    27    2
     9     6    11    1
    10     6    12    1
    11    29    36    1
    12    29    37    1
    13     7     9    1
    14     7    13    1
    15     8    10    1
    16     8    14    1
    17     4     5    1
    18    28    36    1
    19    30    33    1
    20    30    38    1
    21    31    34    1
    22    31    39    1
    23    32    35    1
    24    32    40    1
    25    41    43   ar
    26    15    19    2
    27    42    43   ar
    28    16    22    2
    29    17    12    1
    30    17    19   ar
    31    17    20   ar
    32    18    19   ar
    33    18    22   ar
    34    18    23    1
    35     9    10    1
    36     9    11    1
    37    10    12    1
    38    11     5    1
    39    33    34    1
    40    33    35    1
    41    34    36    1
    42    35    37    1
    43    37    43    1
    44    20    21   ar
    45    21    22   ar
@<TRIPOS>MOLECULE
*****
 43 45 0 0 0
SMALL
GASTEIGER

@<TRIPOS>ATOM
      1 P          22.9349   72.0034   -2.9975 P.3     1  UNL1        0.2189
      2 O          23.5463   70.5140   -3.1608 O.co2   1  UNL1       -0.4371
      3 O          22.8552   72.5042   -1.5852 O.2     1  UNL1       -0.5170
      4 O          21.5314   71.9374   -3.7998 O.3     1  UNL1       -0.3112
      5 C          20.6777   70.8297   -3.5788 C.3     1  UNL1        0.1811
      6 O          18.8398   71.9203   -4.6790 O.3     1  UNL1       -0.3308
      7 O          17.1113   70.7941   -2.5030 O.3     1  UNL1       -0.3794
      8 O          16.6372   69.0931   -4.5810 O.3     1  UNL1       -0.3779
      9 C          18.2473   70.2151   -3.1454 C.3     1  UNL1        0.1713
     10 C          17.8830   69.7571   -4.5418 C.3     1  UNL1        0.1895
     11 C          19.2467   71.3290   -3.4260 C.3     1  UNL1        0.1764
     12 C          17.8717   71.0674   -5.3105 C.3     1  UNL1        0.2383
     13 H          16.4586   70.1014   -2.3136 H       1  UNL1        0.2105
     14 H          16.6961   68.2653   -4.0778 H       1  UNL1        0.2106
     15 O          16.0359   70.4698   -7.3718 O.2     1  UNL1       -0.2464
     16 O          19.3568   70.4332  -10.5679 O.2     1  UNL1       -0.2670
     17 N          18.2295   70.8964   -6.6902 N.ar    1  UNL1       -0.2551
     18 N          17.6918   70.4511   -8.9615 N.ar    1  UNL1       -0.2743
     19 C          17.2305   70.5976   -7.6467 C.ar    1  UNL1        0.3323
     20 C          19.5558   71.0262   -7.0840 C.ar    1  UNL1        0.0869
     21 C          19.9802   70.8838   -8.3411 C.ar    1  UNL1        0.0795
     22 C          19.0001   70.5701   -9.4015 C.ar    1  UNL1        0.2626
     23 H          17.0149   70.2409   -9.6448 H       1  UNL1        0.1734
     24 O          23.8704   72.8889   -3.9741 O.3     1  UNL1       -0.2703
     25 P          24.2741   74.4536   -3.9255 P.3     1  UNL1        0.2208
     26 O          23.8857   74.8891   -2.4156 O.co2   1  UNL1       -0.4371
     27 O          23.6314   75.2888   -4.9947 O.2     1  UNL1       -0.5170
     28 O          25.8871   74.4610   -3.9492 O.3     1  UNL1       -0.2858
     29 O          27.5159   75.6649   -2.7217 O.3     1  UNL1       -0.3226
     30 O          29.2470   75.4898   -6.4688 O.3     1  UNL1       -0.3794
     31 O          26.3930   76.0428   -6.1804 O.3     1  UNL1       -0.3775
     32 O          30.2156   73.7729   -4.3322 O.3     1  UNL1       -0.3792
     33 C          28.4467   75.0289   -5.3802 C.3     1  UNL1        0.1718
     34 C          27.3270   76.0334   -5.1070 C.3     1  UNL1        0.1968
     35 C          29.3508   74.8928   -4.1529 C.3     1  UNL1        0.1723
     36 C          26.5915   75.6936   -3.8099 C.3     1  UNL1        0.2706
     37 C          28.5351   74.6806   -2.8809 C.3     1  UNL1        0.1830
     38 H          28.6936   75.5838   -7.2601 H       1  UNL1        0.2105
     39 H          26.8529   76.2575   -7.0067 H       1  UNL1        0.2106
     40 H          30.7404   73.8954   -5.1387 H       1  UNL1        0.2106
     41 O          30.6993   74.7760   -1.9817 O.co2   1  UNL1       -0.5466
     42 O          28.9601   75.1016   -0.5435 O.co2   1  UNL1       -0.5466
     43 C          29.3840   74.8773   -1.6673 C.2     1  UNL1        0.0799
@<TRIPOS>UNITY_ATOM_ATTR
2 1
charge -1
26 1
charge -1
41 1
charge -1
@<TRIPOS>BOND
     1     1     4    1
     2     1    24    1
     3     1     2    1
     4     1     3    2
     5    25    28    1
     6    25    24    1
     7    25    26    1
     8    25    27    2
     9     6    11    1
    10     6    12    1
    11    29    36    1
    12    29    37    1
    13     7     9    1
    14     7    13    1
    15     8    10    1
    16     8    14    1
    17     4     5    1
    18    28    36    1
    19    30    33    1
    20    30    38    1
    21    31    34    1
    22    31    39    1
    23    32    35    1
    24    32    40    1
    25    41    43   ar
    26    15    19    2
    27    42    43   ar
    28    16    22    2
    29    17    12    1
    30    17    19   ar
    31    17    20   ar
    32    18    19   ar
    33    18    22   ar
    34    18    23    1
    35     9    10    1
    36     9    11    1
    37    10    12    1
    38    11     5    1
    39    33    34    1
    40    33    35    1
    41    34    36    1
    42    35    37    1
    43    37    43    1
    44    20    21   ar
    45    21    22   ar
@<TRIPOS>MOLECULE
*****
 43 45 0 0 0
SMALL
GASTEIGER

@<TRIPOS>ATOM
      1 P          22.0483   75.7916   -4.2458 P.3     1  UNL1        0.2189
      2 O          21.0275   76.7981   -3.4949 O.co2   1  UNL1       -0.4371
      3 O          22.5743   76.2876   -5.5608 O.2     1  UNL1       -0.5170
      4 O          21.2445   74.3883   -4.2949 O.3     1  UNL1       -0.3112
      5 C          20.0178   74.3360   -5.0000 C.3     1  UNL1        0.1811
      6 O          18.2160   72.7667   -5.2618 O.3     1  UNL1       -0.3308
      7 O          18.9314   71.7726   -2.5247 O.3     1  UNL1       -0.3794
      8 O          20.0709   69.9058   -4.1534 O.3     1  UNL1       -0.3779
      9 C          19.7856   72.2478   -3.5654 C.3     1  UNL1        0.1713
     10 C          19.9004   71.2117   -4.6634 C.3     1  UNL1        0.1895
     11 C          19.0699   73.3879   -4.2768 C.3     1  UNL1        0.1764
     12 C          18.5827   71.3847   -5.3993 C.3     1  UNL1        0.2383
     13 H          19.3674   71.0434   -2.0558 H       1  UNL1        0.2105
     14 H          20.9240   69.8467   -3.6944 H       1  UNL1        0.2106
     15 O          16.4485   70.4306   -6.9840 O.2     1  UNL1       -0.2464
     16 O          19.1043   70.1964  -10.7438 O.2     1  UNL1       -0.2670
     17 N          18.6887   71.0664   -6.7951 N.ar    1  UNL1       -0.2551
     18 N          17.7735   70.3139   -8.8548 N.ar    1  UNL1       -0.2743
     19 C          17.5561   70.5938   -7.4993 C.ar    1  UNL1        0.3323
     20 C          19.9028   71.2247   -7.4523 C.ar    1  UNL1        0.0869
     21 C          20.0946   70.9538   -8.7449 C.ar    1  UNL1        0.0795
     22 C          18.9623   70.4547   -9.5524 C.ar    1  UNL1        0.2626
     23 H          17.0002   69.9816   -9.3655 H       1  UNL1        0.1734
     24 O          23.1820   75.5221   -3.1256 O.3     1  UNL1       -0.2703
     25 P          24.1342   74.2416   -2.8658 P.3     1  UNL1        0.2208
     26 O          25.5575   74.9108   -2.4827 O.co2   1  UNL1       -0.4371
     27 O          24.1939   73.2757   -4.0135 O.2     1  UNL1       -0.5170
     28 O          23.5976   73.6064   -1.4833 O.3     1  UNL1       -0.2858
     29 O          21.7420   72.1546   -1.2432 O.3     1  UNL1       -0.3226
     30 O          21.9039   73.9349    2.4813 O.3     1  UNL1       -0.3794
     31 O          22.3038   75.5231    0.0622 O.3     1  UNL1       -0.3775
     32 O          22.8428   71.2067    2.1260 O.3     1  UNL1       -0.3792
     33 C          22.4322   73.4173    1.2603 C.3     1  UNL1        0.1718
     34 C          21.8326   74.1806    0.0790 C.3     1  UNL1        0.1968
     35 C          22.0649   71.9340    1.1772 C.3     1  UNL1        0.1723
     36 C          22.1944   73.5091   -1.2466 C.3     1  UNL1        0.2706
     37 C          22.3390   71.3693   -0.2137 C.3     1  UNL1        0.1830
     38 H          22.1250   74.8766    2.5560 H       1  UNL1        0.2105
     39 H          22.0780   75.9551    0.9005 H       1  UNL1        0.2106
     40 H          22.6777   71.5564    3.0156 H       1  UNL1        0.2106
     41 O          22.3113   69.0956    0.3618 O.co2   1  UNL1       -0.5466
     42 O          20.7127   69.8196   -1.0940 O.co2   1  UNL1       -0.5466
     43 C          21.6830   70.0378   -0.3843 C.2     1  UNL1        0.0799
@<TRIPOS>UNITY_ATOM_ATTR
2 1
charge -1
26 1
charge -1
41 1
charge -1
@<TRIPOS>BOND
     1     1     4    1
     2     1    24    1
     3     1     2    1
     4     1     3    2
     5    25    28    1
     6    25    24    1
     7    25    26    1
     8    25    27    2
     9     6    11    1
    10     6    12    1
    11    29    36    1
    12    29    37    1
    13     7     9    1
    14     7    13    1
    15     8    10    1
    16     8    14    1
    17     4     5    1
    18    28    36    1
    19    30    33    1
    20    30    38    1
    21    31    34    1
    22    31    39    1
    23    32    35    1
    24    32    40    1
    25    41    43   ar
    26    15    19    2
    27    42    43   ar
    28    16    22    2
    29    17    12    1
    30    17    19   ar
    31    17    20   ar
    32    18    19   ar
    33    18    22   ar
    34    18    23    1
    35     9    10    1
    36     9    11    1
    37    10    12    1
    38    11     5    1
    39    33    34    1
    40    33    35    1
    41    34    36    1
    42    35    37    1
    43    37    43    1
    44    20    21   ar
    45    21    22   ar
@<TRIPOS>MOLECULE
*****
 43 45 0 0 0
SMALL
GASTEIGER

@<TRIPOS>ATOM
      1 P          21.9936   70.3839   -0.1683 P.3     1  UNL1        0.2189
      2 O          20.8430   69.6455   -1.0342 O.co2   1  UNL1       -0.4371
      3 O          23.0961   69.4879    0.3150 O.2     1  UNL1       -0.5170
      4 O          21.1703   71.1684    0.9826 O.3     1  UNL1       -0.3112
      5 C          21.6533   72.4245    1.4224 C.3     1  UNL1        0.1811
      6 O          23.1799   72.6955    3.2592 O.3     1  UNL1       -0.3308
      7 O          20.7509   73.0147    4.9883 O.3     1  UNL1       -0.3794
      8 O          21.5730   75.5905    4.6343 O.3     1  UNL1       -0.3779
      9 C          20.9690   73.4522    3.6468 C.3     1  UNL1        0.1713
     10 C          21.8941   74.6506    3.6303 C.3     1  UNL1        0.1895
     11 C          21.8045   72.3950    2.9379 C.3     1  UNL1        0.1764
     12 C          23.2517   74.0041    3.8471 C.3     1  UNL1        0.2383
     13 H          20.2191   73.6742    5.4615 H       1  UNL1        0.2105
     14 H          20.7003   75.9738    4.4512 H       1  UNL1        0.2106
     15 O          25.6136   74.8214    5.1623 O.2     1  UNL1       -0.2464
     16 O          27.2626   76.8192    1.3500 O.2     1  UNL1       -0.2670
     17 N          24.3147   74.7391    3.2220 N.ar    1  UNL1       -0.2551
     18 N          26.4322   75.8165    3.2626 N.ar    1  UNL1       -0.2743
     19 C          25.4586   75.1010    3.9720 C.ar    1  UNL1        0.3323
     20 C          24.2190   75.0922    1.8815 C.ar    1  UNL1        0.0869
     21 C          25.1553   75.7742    1.2189 C.ar    1  UNL1        0.0795
     22 C          26.3817   76.1913    1.9297 C.ar    1  UNL1        0.2626
     23 H          27.2369   76.0814    3.7642 H       1  UNL1        0.1734
     24 O          22.4755   71.5764   -1.1473 O.3     1  UNL1       -0.2703
     25 P          22.5762   71.6512   -2.7591 P.3     1  UNL1        0.2208
     26 O          23.5388   70.4032   -3.1279 O.co2   1  UNL1       -0.4371
     27 O          23.0505   72.9747   -3.2857 O.2     1  UNL1       -0.5170
     28 O          21.1158   71.2073   -3.2815 O.3     1  UNL1       -0.2858
     29 O          19.7202   71.9684   -5.0371 O.3     1  UNL1       -0.3226
     30 O          16.9648   71.1354   -2.0736 O.3     1  UNL1       -0.3794
     31 O          19.4786   72.4748   -1.4243 O.3     1  UNL1       -0.3775
     32 O          17.2795   69.3230   -4.3246 O.3     1  UNL1       -0.3792
     33 C          18.1759   70.9693   -2.8110 C.3     1  UNL1        0.1718
     34 C          18.9959   72.2581   -2.7452 C.3     1  UNL1        0.1968
     35 C          17.8065   70.6469   -4.2606 C.3     1  UNL1        0.1723
     36 C          20.1840   72.2002   -3.7064 C.3     1  UNL1        0.2706
     37 C          19.0230   70.7325   -5.1778 C.3     1  UNL1        0.1830
     38 H          17.1746   71.3411   -1.1490 H       1  UNL1        0.2105
     39 H          18.7300   72.5123   -0.8091 H       1  UNL1        0.2106
     40 H          16.5047   69.2551   -3.7451 H       1  UNL1        0.2106
     41 O          17.2602   70.8721   -6.7187 O.co2   1  UNL1       -0.5466
     42 O          19.3663   70.6536   -7.5647 O.co2   1  UNL1       -0.5466
     43 C          18.6060   70.7440   -6.6124 C.2     1  UNL1        0.0799
@<TRIPOS>UNITY_ATOM_ATTR
2 1
charge -1
26 1
charge -1
41 1
charge -1
@<TRIPOS>BOND
     1     1     4    1
     2     1    24    1
     3     1     2    1
     4     1     3    2
     5    25    28    1
     6    25    24    1
     7    25    26    1
     8    25    27    2
     9     6    11    1
    10     6    12    1
    11    29    36    1
    12    29    37    1
    13     7     9    1
    14     7    13    1
    15     8    10    1
    16     8    14    1
    17     4     5    1
    18    28    36    1
    19    30    33    1
    20    30    38    1
    21    31    34    1
    22    31    39    1
    23    32    35    1
    24    32    40    1
    25    41    43   ar
    26    15    19    2
    27    42    43   ar
    28    16    22    2
    29    17    12    1
    30    17    19   ar
    31    17    20   ar
    32    18    19   ar
    33    18    22   ar
    34    18    23    1
    35     9    10    1
    36     9    11    1
    37    10    12    1
    38    11     5    1
    39    33    34    1
    40    33    35    1
    41    34    36    1
    42    35    37    1
    43    37    43    1
    44    20    21   ar
    45    21    22   ar
@<TRIPOS>MOLECULE
*****
 43 45 0 0 0
SMALL
GASTEIGER

@<TRIPOS>ATOM
      1 P          22.6949   71.1174   -1.9960 P.3     1  UNL1        0.2189
      2 O          23.4118   70.4005   -3.2573 O.co2   1  UNL1       -0.4371
      3 O          23.1270   70.6125   -0.6506 O.2     1  UNL1       -0.5170
      4 O          21.1153   70.9871   -2.3213 O.3     1  UNL1       -0.3112
      5 C          20.6382   71.4733   -3.5625 C.3     1  UNL1        0.1811
      6 O          18.6825   72.2689   -4.7113 O.3     1  UNL1       -0.3308
      7 O          17.1043   71.1061   -2.4422 O.3     1  UNL1       -0.3794
      8 O          16.8184   69.2229   -4.3935 O.3     1  UNL1       -0.3779
      9 C          18.2962   70.6173   -3.0579 C.3     1  UNL1        0.1713
     10 C          17.9802   70.0255   -4.4152 C.3     1  UNL1        0.1895
     11 C          19.1602   71.8157   -3.4261 C.3     1  UNL1        0.1764
     12 C          17.8154   71.2698   -5.2711 C.3     1  UNL1        0.2383
     13 H          16.5361   70.3584   -2.1980 H       1  UNL1        0.2105
     14 H          16.9740   68.4438   -3.8360 H       1  UNL1        0.2106
     15 O          16.0442   70.3504   -7.2695 O.2     1  UNL1       -0.2464
     16 O          19.3392   70.4461  -10.4910 O.2     1  UNL1       -0.2670
     17 N          18.1840   71.0458   -6.6403 N.ar    1  UNL1       -0.2551
     18 N          17.6872   70.3980   -8.8719 N.ar    1  UNL1       -0.2743
     19 C          17.2180   70.5827   -7.5646 C.ar    1  UNL1        0.3323
     20 C          19.4882   71.2857   -7.0557 C.ar    1  UNL1        0.0869
     21 C          19.9205   71.1051   -8.3052 C.ar    1  UNL1        0.0795
     22 C          18.9745   70.6223   -9.3324 C.ar    1  UNL1        0.2626
     23 H          17.0333   70.0741   -9.5328 H       1  UNL1        0.1734
     24 O          22.9907   72.6855   -2.2536 O.3     1  UNL1       -0.2703
     25 P          22.7161   73.9833   -1.3294 P.3     1  UNL1        0.2208
     26 O          21.5187   74.7451   -2.1080 O.co2   1  UNL1       -0.4371
     27 O          23.9303   74.8309   -1.0816 O.2     1  UNL1       -0.5170
     28 O          22.0255   73.3965    0.0052 O.3     1  UNL1       -0.2858
     29 O          23.1026   74.6138    1.7278 O.3     1  UNL1       -0.3226
     30 O          20.1578   72.6153    3.8258 O.3     1  UNL1       -0.3794
     31 O          21.6747   71.2482    1.7366 O.3     1  UNL1       -0.3775
     32 O          19.8673   75.4486    3.2436 O.3     1  UNL1       -0.3792
     33 C          20.7381   73.2695    2.6974 C.3     1  UNL1        0.1718
     34 C          22.0036   72.5259    2.2696 C.3     1  UNL1        0.1968
     35 C          21.0766   74.7050    3.1056 C.3     1  UNL1        0.1723
     36 C          22.7758   73.3212    1.2161 C.3     1  UNL1        0.2706
     37 C          21.9533   75.3893    2.0607 C.3     1  UNL1        0.1830
     38 H          19.9344   71.7010    3.5901 H       1  UNL1        0.2105
     39 H          21.1843   70.7382    2.3998 H       1  UNL1        0.2106
     40 H          19.3001   75.0235    3.9058 H       1  UNL1        0.2106
     41 O          21.5775   77.5704    2.8373 O.co2   1  UNL1       -0.5466
     42 O          23.7338   76.8293    2.8206 O.co2   1  UNL1       -0.5466
     43 C          22.5446   76.6482    2.6065 C.2     1  UNL1        0.0799
@<TRIPOS>UNITY_ATOM_ATTR
2 1
charge -1
26 1
charge -1
41 1
charge -1
@<TRIPOS>BOND
     1     1     4    1
     2     1    24    1
     3     1     2    1
     4     1     3    2
     5    25    28    1
     6    25    24    1
     7    25    26    1
     8    25    27    2
     9     6    11    1
    10     6    12    1
    11    29    36    1
    12    29    37    1
    13     7     9    1
    14     7    13    1
    15     8    10    1
    16     8    14    1
    17     4     5    1
    18    28    36    1
    19    30    33    1
    20    30    38    1
    21    31    34    1
    22    31    39    1
    23    32    35    1
    24    32    40    1
    25    41    43   ar
    26    15    19    2
    27    42    43   ar
    28    16    22    2
    29    17    12    1
    30    17    19   ar
    31    17    20   ar
    32    18    19   ar
    33    18    22   ar
    34    18    23    1
    35     9    10    1
    36     9    11    1
    37    10    12    1
    38    11     5    1
    39    33    34    1
    40    33    35    1
    41    34    36    1
    42    35    37    1
    43    37    43    1
    44    20    21   ar
    45    21    22   ar
@<TRIPOS>MOLECULE
*****
 43 45 0 0 0
SMALL
GASTEIGER

@<TRIPOS>ATOM
      1 P          20.9283   73.6532   -5.0479 P.3     1  UNL1        0.2189
      2 O          21.2274   74.8410   -3.9903 O.co2   1  UNL1       -0.4371
      3 O          21.4241   73.9059   -6.4414 O.2     1  UNL1       -0.5170
      4 O          19.3373   73.3964   -4.9040 O.3     1  UNL1       -0.3112
      5 C          18.7786   73.3257   -3.6050 C.3     1  UNL1        0.1811
      6 O          16.9494   72.9027   -5.1059 O.3     1  UNL1       -0.3308
      7 O          15.7379   71.2989   -2.8806 O.3     1  UNL1       -0.3794
      8 O          16.7961   69.3731   -4.4954 O.3     1  UNL1       -0.3779
      9 C          17.1097   71.4383   -3.2510 C.3     1  UNL1        0.1713
     10 C          17.3943   70.6523   -4.5132 C.3     1  UNL1        0.1895
     11 C          17.3282   72.8727   -3.7127 C.3     1  UNL1        0.1764
     12 C          16.8106   71.5559   -5.5859 C.3     1  UNL1        0.2383
     13 H          15.5740   70.3903   -2.5820 H       1  UNL1        0.2105
     14 H          17.2020   68.8361   -3.7962 H       1  UNL1        0.2106
     15 O          15.8253   72.5279   -8.0478 O.2     1  UNL1       -0.2464
     16 O          19.5376   71.0312  -10.3330 O.2     1  UNL1       -0.2670
     17 N          17.4991   71.4338   -6.8396 N.ar    1  UNL1       -0.2551
     18 N          17.6747   71.7806   -9.1838 N.ar    1  UNL1       -0.2743
     19 C          16.9168   71.9563   -8.0186 C.ar    1  UNL1        0.3323
     20 C          18.7368   70.8042   -6.8927 C.ar    1  UNL1        0.0869
     21 C          19.4474   70.6444   -8.0109 C.ar    1  UNL1        0.0795
     22 C          18.9096   71.1610   -9.2866 C.ar    1  UNL1        0.2626
     23 H          17.2889   72.1344  -10.0176 H       1  UNL1        0.1734
     24 O          21.5721   72.3565   -4.3289 O.3     1  UNL1       -0.2703
     25 P          22.8781   72.2033   -3.3884 P.3     1  UNL1        0.2208
     26 O          23.9539   73.1918   -4.0855 O.co2   1  UNL1       -0.4371
     27 O          23.3547   70.7894   -3.2219 O.2     1  UNL1       -0.5170
     28 O          22.4794   72.9421   -2.0108 O.3     1  UNL1       -0.2858
     29 O          21.6014   71.3526   -0.4903 O.3     1  UNL1       -0.3226
     30 O          21.2191   74.8649    1.6511 O.3     1  UNL1       -0.3794
     31 O          20.5645   74.7870   -1.1949 O.3     1  UNL1       -0.3775
     32 O          23.3336   72.9801    2.3049 O.3     1  UNL1       -0.3792
     33 C          21.8165   73.9678    0.7150 C.3     1  UNL1        0.1718
     34 C          20.8133   73.6395   -0.3911 C.3     1  UNL1        0.1968
     35 C          22.2149   72.6959    1.4669 C.3     1  UNL1        0.1723
     36 C          21.3317   72.5100   -1.2823 C.3     1  UNL1        0.2706
     37 C          22.5990   71.5765    0.5035 C.3     1  UNL1        0.1830
     38 H          20.9576   75.6807    1.1958 H       1  UNL1        0.2105
     39 H          20.2356   75.5078   -0.6358 H       1  UNL1        0.2106
     40 H          23.1023   73.6911    2.9228 H       1  UNL1        0.2106
     41 O          21.7367   69.4062    0.7227 O.co2   1  UNL1       -0.5466
     42 O          23.4454   69.9920    2.1143 O.co2   1  UNL1       -0.5466
     43 C          22.6647   70.2640    1.2145 C.2     1  UNL1        0.0799
@<TRIPOS>UNITY_ATOM_ATTR
2 1
charge -1
26 1
charge -1
41 1
charge -1
@<TRIPOS>BOND
     1     1     4    1
     2     1    24    1
     3     1     2    1
     4     1     3    2
     5    25    28    1
     6    25    24    1
     7    25    26    1
     8    25    27    2
     9     6    11    1
    10     6    12    1
    11    29    36    1
    12    29    37    1
    13     7     9    1
    14     7    13    1
    15     8    10    1
    16     8    14    1
    17     4     5    1
    18    28    36    1
    19    30    33    1
    20    30    38    1
    21    31    34    1
    22    31    39    1
    23    32    35    1
    24    32    40    1
    25    41    43   ar
    26    15    19    2
    27    42    43   ar
    28    16    22    2
    29    17    12    1
    30    17    19   ar
    31    17    20   ar
    32    18    19   ar
    33    18    22   ar
    34    18    23    1
    35     9    10    1
    36     9    11    1
    37    10    12    1
    38    11     5    1
    39    33    34    1
    40    33    35    1
    41    34    36    1
    42    35    37    1
    43    37    43    1
    44    20    21   ar
    45    21    22   ar
@<TRIPOS>MOLECULE
*****
 43 45 0 0 0
SMALL
GASTEIGER

@<TRIPOS>ATOM
      1 P          22.8876   71.8343   -2.9606 P.3     1  UNL1        0.2189
      2 O          23.5563   70.3827   -3.2149 O.co2   1  UNL1       -0.4371
      3 O          22.7262   72.2135   -1.5177 O.2     1  UNL1       -0.5170
      4 O          21.5254   71.7927   -3.8328 O.3     1  UNL1       -0.3112
      5 C          20.6319   70.7116   -3.6399 C.3     1  UNL1        0.1811
      6 O          18.8361   71.8695   -4.7408 O.3     1  UNL1       -0.3308
      7 O          17.0618   70.7889   -2.5784 O.3     1  UNL1       -0.3794
      8 O          16.5397   69.1171   -4.6685 O.3     1  UNL1       -0.3779
      9 C          18.1805   70.1760   -3.2198 C.3     1  UNL1        0.1713
     10 C          17.8069   69.7388   -4.6204 C.3     1  UNL1        0.1895
     11 C          19.2177   71.2575   -3.4897 C.3     1  UNL1        0.1764
     12 C          17.8426   71.0533   -5.3812 C.3     1  UNL1        0.2383
     13 H          16.3855   70.1174   -2.3959 H       1  UNL1        0.2105
     14 H          16.5688   68.2848   -4.1702 H       1  UNL1        0.2106
     15 O          16.0036   70.4712   -7.4441 O.2     1  UNL1       -0.2464
     16 O          19.3271   70.4038  -10.6369 O.2     1  UNL1       -0.2670
     17 N          18.2002   70.8785   -6.7605 N.ar    1  UNL1       -0.2551
     18 N          17.6608   70.4372   -9.0322 N.ar    1  UNL1       -0.2743
     19 C          17.1995   70.5883   -7.7178 C.ar    1  UNL1        0.3323
     20 C          19.5280   70.9963   -7.1530 C.ar    1  UNL1        0.0869
     21 C          19.9524   70.8497   -8.4097 C.ar    1  UNL1        0.0795
     22 C          18.9706   70.5443   -9.4709 C.ar    1  UNL1        0.2626
     23 H          16.9827   70.2327   -9.7161 H       1  UNL1        0.1734
     24 O          23.8362   72.8255   -3.8153 O.3     1  UNL1       -0.2703
     25 P          24.3639   74.3213   -3.5024 P.3     1  UNL1        0.2208
     26 O          23.2127   75.2613   -4.1439 O.co2   1  UNL1       -0.4371
     27 O          25.7480   74.6048   -4.0101 O.2     1  UNL1       -0.5170
     28 O          24.1876   74.4923   -1.9080 O.3     1  UNL1       -0.2858
     29 O          22.4367   75.5934   -0.7542 O.3     1  UNL1       -0.3226
     30 O          25.5966   76.0648    1.8652 O.3     1  UNL1       -0.3794
     31 O          25.9916   76.4088   -1.0088 O.3     1  UNL1       -0.3775
     32 O          23.5174   74.1113    2.4235 O.3     1  UNL1       -0.3792
     33 C          24.8207   75.4057    0.8644 C.3     1  UNL1        0.1718
     34 C          24.7226   76.2952   -0.3752 C.3     1  UNL1        0.1968
     35 C          23.4283   75.1428    1.4424 C.3     1  UNL1        0.1723
     36 C          23.7149   75.7288   -1.3766 C.3     1  UNL1        0.2706
     37 C          22.4493   74.7016    0.3583 C.3     1  UNL1        0.1830
     38 H          26.4859   76.2422    1.5204 H       1  UNL1        0.2105
     39 H          26.6360   76.7673   -0.3791 H       1  UNL1        0.2106
     40 H          24.1376   74.3796    3.1193 H       1  UNL1        0.2106
     41 O          20.1753   74.3619   -0.1052 O.co2   1  UNL1       -0.5466
     42 O          20.7096   75.1298    1.9742 O.co2   1  UNL1       -0.5466
     43 C          21.0421   74.7663    0.8561 C.2     1  UNL1        0.0799
@<TRIPOS>UNITY_ATOM_ATTR
2 1
charge -1
26 1
charge -1
41 1
charge -1
@<TRIPOS>BOND
     1     1     4    1
     2     1    24    1
     3     1     2    1
     4     1     3    2
     5    25    28    1
     6    25    24    1
     7    25    26    1
     8    25    27    2
     9     6    11    1
    10     6    12    1
    11    29    36    1
    12    29    37    1
    13     7     9    1
    14     7    13    1
    15     8    10    1
    16     8    14    1
    17     4     5    1
    18    28    36    1
    19    30    33    1
    20    30    38    1
    21    31    34    1
    22    31    39    1
    23    32    35    1
    24    32    40    1
    25    41    43   ar
    26    15    19    2
    27    42    43   ar
    28    16    22    2
    29    17    12    1
    30    17    19   ar
    31    17    20   ar
    32    18    19   ar
    33    18    22   ar
    34    18    23    1
    35     9    10    1
    36     9    11    1
    37    10    12    1
    38    11     5    1
    39    33    34    1
    40    33    35    1
    41    34    36    1
    42    35    37    1
    43    37    43    1
    44    20    21   ar
    45    21    22   ar
@<TRIPOS>MOLECULE
*****
 43 45 0 0 0
SMALL
GASTEIGER

@<TRIPOS>ATOM
      1 P          22.8510   71.9780   -3.2039 P.3     1  UNL1        0.2189
      2 O          23.7682   70.6458   -3.1497 O.co2   1  UNL1       -0.4371
      3 O          22.4991   72.5597   -1.8661 O.2     1  UNL1       -0.5170
      4 O          21.5990   71.5501   -4.1352 O.3     1  UNL1       -0.3112
      5 C          20.7209   70.5431   -3.6668 C.3     1  UNL1        0.1811
      6 O          18.9514   71.7853   -4.7173 O.3     1  UNL1       -0.3308
      7 O          17.1779   70.7469   -2.5337 O.3     1  UNL1       -0.3794
      8 O          16.5496   69.1248   -4.6337 O.3     1  UNL1       -0.3779
      9 C          18.2588   70.0990   -3.2049 C.3     1  UNL1        0.1713
     10 C          17.8411   69.6954   -4.6030 C.3     1  UNL1        0.1895
     11 C          19.3327   71.1423   -3.4818 C.3     1  UNL1        0.1764
     12 C          17.9142   71.0174   -5.3480 C.3     1  UNL1        0.2383
     13 H          16.4792   70.1002   -2.3462 H       1  UNL1        0.2105
     14 H          16.5554   68.2854   -4.1465 H       1  UNL1        0.2106
     15 O          16.0108   70.5694   -7.3859 O.2     1  UNL1       -0.2464
     16 O          19.2698   70.3779  -10.6395 O.2     1  UNL1       -0.2670
     17 N          18.2378   70.8470   -6.7362 N.ar    1  UNL1       -0.2551
     18 N          17.6359   70.4734   -9.0043 N.ar    1  UNL1       -0.2743
     19 C          17.2064   70.6269   -7.6795 C.ar    1  UNL1        0.3323
     20 C          19.5629   70.9002   -7.1510 C.ar    1  UNL1        0.0869
     21 C          19.9569   70.7522   -8.4174 C.ar    1  UNL1        0.0795
     22 C          18.9417   70.5177   -9.4652 C.ar    1  UNL1        0.2626
     23 H          16.9360   70.3171   -9.6789 H       1  UNL1        0.1734
     24 O          23.6986   72.9634   -4.1648 O.3     1  UNL1       -0.2703
     25 P          23.7933   74.5766   -4.2125 P.3     1  UNL1        0.2208
     26 O          25.3866   74.8556   -4.1513 O.co2   1  UNL1       -0.4371
     27 O          23.0022   75.2718   -3.1424 O.2     1  UNL1       -0.5170
     28 O          23.3691   74.9671   -5.7191 O.3     1  UNL1       -0.2858
     29 O          21.3495   75.8630   -6.5723 O.3     1  UNL1       -0.3226
     30 O          22.5938   73.4674   -9.6997 O.3     1  UNL1       -0.3794
     31 O          22.8100   72.5317   -6.9407 O.3     1  UNL1       -0.3775
     32 O          22.8887   76.3547   -9.8664 O.3     1  UNL1       -0.3792
     33 C          22.7571   74.3270   -8.5717 C.3     1  UNL1        0.1718
     34 C          22.0970   73.6943   -7.3463 C.3     1  UNL1        0.1968
     35 C          22.0964   75.6679   -8.8994 C.3     1  UNL1        0.1723
     36 C          22.0494   74.6818   -6.1795 C.3     1  UNL1        0.2706
     37 C          21.9727   76.5462   -7.6576 C.3     1  UNL1        0.1830
     38 H          23.0059   72.6088   -9.5146 H       1  UNL1        0.2105
     39 H          22.8443   71.9008   -7.6764 H       1  UNL1        0.2106
     40 H          22.9753   75.8063  -10.6618 H       1  UNL1        0.2106
     41 O          20.2719   77.4522   -8.9947 O.co2   1  UNL1       -0.5466
     42 O          20.9890   78.7077   -7.2316 O.co2   1  UNL1       -0.5466
     43 C          21.0474   77.6921   -7.9084 C.2     1  UNL1        0.0799
@<TRIPOS>UNITY_ATOM_ATTR
2 1
charge -1
26 1
charge -1
41 1
charge -1
@<TRIPOS>BOND
     1     1     4    1
     2     1    24    1
     3     1     2    1
     4     1     3    2
     5    25    28    1
     6    25    24    1
     7    25    26    1
     8    25    27    2
     9     6    11    1
    10     6    12    1
    11    29    36    1
    12    29    37    1
    13     7     9    1
    14     7    13    1
    15     8    10    1
    16     8    14    1
    17     4     5    1
    18    28    36    1
    19    30    33    1
    20    30    38    1
    21    31    34    1
    22    31    39    1
    23    32    35    1
    24    32    40    1
    25    41    43   ar
    26    15    19    2
    27    42    43   ar
    28    16    22    2
    29    17    12    1
    30    17    19   ar
    31    17    20   ar
    32    18    19   ar
    33    18    22   ar
    34    18    23    1
    35     9    10    1
    36     9    11    1
    37    10    12    1
    38    11     5    1
    39    33    34    1
    40    33    35    1
    41    34    36    1
    42    35    37    1
    43    37    43    1
    44    20    21   ar
    45    21    22   ar
@<TRIPOS>MOLECULE
*****
 43 45 0 0 0
SMALL
GASTEIGER

@<TRIPOS>ATOM
      1 P          21.6236   73.8254   -5.8158 P.3     1  UNL1        0.2189
      2 O          22.9132   74.7364   -6.1709 O.co2   1  UNL1       -0.4371
      3 O          21.9151   72.6121   -4.9822 O.2     1  UNL1       -0.5170
      4 O          20.9403   73.5416   -7.2547 O.3     1  UNL1       -0.3112
      5 C          21.4687   72.5051   -8.0615 C.3     1  UNL1        0.1811
      6 O          19.8291   70.7702   -8.3438 O.3     1  UNL1       -0.3308
      7 O          18.5116   72.5947  -10.3255 O.3     1  UNL1       -0.3794
      8 O          16.9783   72.9302   -8.0956 O.3     1  UNL1       -0.3779
      9 C          19.1879   72.9178   -9.1103 C.3     1  UNL1        0.1713
     10 C          18.3278   72.5532   -7.9188 C.3     1  UNL1        0.1895
     11 C          20.3637   71.9625   -8.9586 C.3     1  UNL1        0.1764
     12 C          18.5096   71.0466   -7.8479 C.3     1  UNL1        0.2383
     13 H          17.7562   73.1921  -10.4442 H       1  UNL1        0.2105
     14 H          16.9153   73.8979   -8.1344 H       1  UNL1        0.2106
     15 O          16.0780   70.3067   -6.6165 O.2     1  UNL1       -0.2464
     16 O          18.2072   69.1307   -2.7015 O.2     1  UNL1       -0.2670
     17 N          18.3997   70.5440   -6.5077 N.ar    1  UNL1       -0.2551
     18 N          17.1406   69.7226   -4.6674 N.ar    1  UNL1       -0.2743
     19 C          17.1306   70.2015   -5.9841 C.ar    1  UNL1        0.3323
     20 C          19.5399   70.3931   -5.7278 C.ar    1  UNL1        0.0869
     21 C          19.5337   69.9353   -4.4744 C.ar    1  UNL1        0.0795
     22 C          18.2483   69.5557   -3.8521 C.ar    1  UNL1        0.2626
     23 H          16.2685   69.4796   -4.2805 H       1  UNL1        0.1734
     24 O          20.6090   74.8829   -5.1339 O.3     1  UNL1       -0.2703
     25 P          19.4382   74.6756   -4.0385 P.3     1  UNL1        0.2208
     26 O          18.5146   73.5215   -4.6982 O.co2   1  UNL1       -0.4371
     27 O          18.6977   75.9324   -3.6833 O.2     1  UNL1       -0.5170
     28 O          20.1659   73.9527   -2.7934 O.3     1  UNL1       -0.2858
     29 O          19.8534   71.8973   -1.6591 O.3     1  UNL1       -0.3226
     30 O          20.7099   74.4602    1.4659 O.3     1  UNL1       -0.3794
     31 O          18.9349   75.3025   -0.6961 O.3     1  UNL1       -0.3775
     32 O          22.7248   72.5921    0.5167 O.3     1  UNL1       -0.3792
     33 C          20.7834   73.9652    0.1289 C.3     1  UNL1        0.1718
     34 C          19.3879   73.9686   -0.4955 C.3     1  UNL1        0.1968
     35 C          21.3393   72.5404    0.1820 C.3     1  UNL1        0.1723
     36 C          19.3872   73.2353   -1.8376 C.3     1  UNL1        0.2706
     37 C          21.1881   71.8330   -1.1616 C.3     1  UNL1        0.1830
     38 H          20.3591   75.3648    1.4571 H       1  UNL1        0.2105
     39 H          18.9330   75.7738    0.1514 H       1  UNL1        0.2106
     40 H          22.8349   73.0402    1.3698 H       1  UNL1        0.2106
     41 O          21.3311   69.9909    0.2834 O.co2   1  UNL1       -0.5466
     42 O          21.6601   69.5980   -1.9384 O.co2   1  UNL1       -0.5466
     43 C          21.4219   70.3644   -1.0171 C.2     1  UNL1        0.0799
@<TRIPOS>UNITY_ATOM_ATTR
2 1
charge -1
26 1
charge -1
41 1
charge -1
@<TRIPOS>BOND
     1     1     4    1
     2     1    24    1
     3     1     2    1
     4     1     3    2
     5    25    28    1
     6    25    24    1
     7    25    26    1
     8    25    27    2
     9     6    11    1
    10     6    12    1
    11    29    36    1
    12    29    37    1
    13     7     9    1
    14     7    13    1
    15     8    10    1
    16     8    14    1
    17     4     5    1
    18    28    36    1
    19    30    33    1
    20    30    38    1
    21    31    34    1
    22    31    39    1
    23    32    35    1
    24    32    40    1
    25    41    43   ar
    26    15    19    2
    27    42    43   ar
    28    16    22    2
    29    17    12    1
    30    17    19   ar
    31    17    20   ar
    32    18    19   ar
    33    18    22   ar
    34    18    23    1
    35     9    10    1
    36     9    11    1
    37    10    12    1
    38    11     5    1
    39    33    34    1
    40    33    35    1
    41    34    36    1
    42    35    37    1
    43    37    43    1
    44    20    21   ar
    45    21    22   ar
@<TRIPOS>MOLECULE
*****
 43 45 0 0 0
SMALL
GASTEIGER

@<TRIPOS>ATOM
      1 P          22.3696   73.3885   -5.2349 P.3     1  UNL1        0.2189
      2 O          22.7705   74.8358   -5.8376 O.co2   1  UNL1       -0.4371
      3 O          23.4985   72.6328   -4.5975 O.2     1  UNL1       -0.5170
      4 O          21.6340   72.6440   -6.4688 O.3     1  UNL1       -0.3112
      5 C          20.8419   73.4184   -7.3504 C.3     1  UNL1        0.1811
      6 O          20.0386   71.1932   -7.7757 O.3     1  UNL1       -0.3308
      7 O          18.5207   72.3804  -10.0731 O.3     1  UNL1       -0.3794
      8 O          16.5972   72.1233   -8.1574 O.3     1  UNL1       -0.3779
      9 C          18.7990   72.9389   -8.7889 C.3     1  UNL1        0.1713
     10 C          17.9349   72.2822   -7.7333 C.3     1  UNL1        0.1895
     11 C          20.1965   72.4966   -8.3771 C.3     1  UNL1        0.1764
     12 C          18.6443   70.9550   -7.5259 C.3     1  UNL1        0.2383
     13 H          17.6328   72.6493  -10.3575 H       1  UNL1        0.2105
     14 H          16.1894   72.9961   -8.2750 H       1  UNL1        0.2106
     15 O          16.3184   69.6726   -6.5655 O.2     1  UNL1       -0.2464
     16 O          18.1572   69.0701   -2.3822 O.2     1  UNL1       -0.2670
     17 N          18.4883   70.4531   -6.1900 N.ar    1  UNL1       -0.2551
     18 N          17.2361   69.3747   -4.4826 N.ar    1  UNL1       -0.2743
     19 C          17.2790   69.8252   -5.8086 C.ar    1  UNL1        0.3323
     20 C          19.5256   70.5835   -5.2746 C.ar    1  UNL1        0.0869
     21 C          19.4699   70.1490   -4.0141 C.ar    1  UNL1        0.0795
     22 C          18.2414   69.4821   -3.5353 C.ar    1  UNL1        0.2626
     23 H          16.4035   68.9359   -4.1933 H       1  UNL1        0.1734
     24 O          21.1452   73.7367   -4.2386 O.3     1  UNL1       -0.2703
     25 P          21.1372   74.2935   -2.7209 P.3     1  UNL1        0.2208
     26 O          19.5998   74.7509   -2.5028 O.co2   1  UNL1       -0.4371
     27 O          22.1470   75.3723   -2.4554 O.2     1  UNL1       -0.5170
     28 O          21.3051   72.9784   -1.8016 O.3     1  UNL1       -0.2858
     29 O          23.0171   73.3677   -0.2120 O.3     1  UNL1       -0.3226
     30 O          21.9367   69.4748    0.6521 O.3     1  UNL1       -0.3794
     31 O          22.1897   70.3608   -2.1201 O.3     1  UNL1       -0.3775
     32 O          21.0800   71.6459    2.3852 O.3     1  UNL1       -0.3792
     33 C          21.7297   70.8188    0.2175 C.3     1  UNL1        0.1718
     34 C          22.6217   71.1094   -0.9898 C.3     1  UNL1        0.1968
     35 C          22.0846   71.7511    1.3781 C.3     1  UNL1        0.1723
     36 C          22.6001   72.5978   -1.3403 C.3     1  UNL1        0.2706
     37 C          22.1660   73.2045    0.9203 C.3     1  UNL1        0.1830
     38 H          21.7176   68.8642   -0.0692 H       1  UNL1        0.2105
     39 H          22.2007   69.4154   -1.9047 H       1  UNL1        0.2106
     40 H          21.0180   70.7255    2.6851 H       1  UNL1        0.2106
     41 O          23.2593   73.2898    2.9936 O.co2   1  UNL1       -0.5466
     42 O          22.9589   75.2646    1.8941 O.co2   1  UNL1       -0.5466
     43 C          22.8244   74.0519    1.9598 C.2     1  UNL1        0.0799
@<TRIPOS>UNITY_ATOM_ATTR
2 1
charge -1
26 1
charge -1
41 1
charge -1
@<TRIPOS>BOND
     1     1     4    1
     2     1    24    1
     3     1     2    1
     4     1     3    2
     5    25    28    1
     6    25    24    1
     7    25    26    1
     8    25    27    2
     9     6    11    1
    10     6    12    1
    11    29    36    1
    12    29    37    1
    13     7     9    1
    14     7    13    1
    15     8    10    1
    16     8    14    1
    17     4     5    1
    18    28    36    1
    19    30    33    1
    20    30    38    1
    21    31    34    1
    22    31    39    1
    23    32    35    1
    24    32    40    1
    25    41    43   ar
    26    15    19    2
    27    42    43   ar
    28    16    22    2
    29    17    12    1
    30    17    19   ar
    31    17    20   ar
    32    18    19   ar
    33    18    22   ar
    34    18    23    1
    35     9    10    1
    36     9    11    1
    37    10    12    1
    38    11     5    1
    39    33    34    1
    40    33    35    1
    41    34    36    1
    42    35    37    1
    43    37    43    1
    44    20    21   ar
    45    21    22   ar
@<TRIPOS>MOLECULE
*****
 43 45 0 0 0
SMALL
GASTEIGER

@<TRIPOS>ATOM
      1 P          22.0593   70.4940   -0.4814 P.3     1  UNL1        0.2189
      2 O          22.8079   69.1841    0.1040 O.co2   1  UNL1       -0.4371
      3 O          20.5800   70.3416   -0.6821 O.2     1  UNL1       -0.5170
      4 O          22.9126   70.8708   -1.8034 O.3     1  UNL1       -0.3112
      5 C          22.2197   71.0657   -3.0226 C.3     1  UNL1        0.1811
      6 O          22.5228   72.4188   -4.9860 O.3     1  UNL1       -0.3308
      7 O          22.0480   74.7827   -3.2034 O.3     1  UNL1       -0.3794
      8 O          19.6399   74.4808   -4.4467 O.3     1  UNL1       -0.3779
      9 C          21.4504   73.4866   -3.1638 C.3     1  UNL1        0.1713
     10 C          20.4514   73.3354   -4.2914 C.3     1  UNL1        0.1895
     11 C          22.5153   72.4666   -3.5428 C.3     1  UNL1        0.1764
     12 C          21.3584   73.0950   -5.4862 C.3     1  UNL1        0.2383
     13 H          21.3866   75.4515   -2.9648 H       1  UNL1        0.2105
     14 H          19.0813   74.5903   -3.6606 H       1  UNL1        0.2106
     15 O          19.3364   71.1929   -4.9660 O.2     1  UNL1       -0.2464
     16 O          19.0504   70.0111   -9.4118 O.2     1  UNL1       -0.2670
     17 N          20.7379   72.2765   -6.4892 N.ar    1  UNL1       -0.2551
     18 N          19.1966   70.6054   -7.1806 N.ar    1  UNL1       -0.2743
     19 C          19.7319   71.3516   -6.1224 C.ar    1  UNL1        0.3323
     20 C          21.1253   72.3953   -7.8184 C.ar    1  UNL1        0.0869
     21 C          20.6059   71.6771   -8.8160 C.ar    1  UNL1        0.0795
     22 C          19.5498   70.6876   -8.5178 C.ar    1  UNL1        0.2626
     23 H          18.4960   69.9534   -6.9496 H       1  UNL1        0.1734
     24 O          22.4811   71.6512    0.5654 O.3     1  UNL1       -0.2703
     25 P          22.3358   73.2593    0.4852 P.3     1  UNL1        0.2208
     26 O          20.7726   73.4719    0.1228 O.co2   1  UNL1       -0.4371
     27 O          23.2875   73.9166   -0.4721 O.2     1  UNL1       -0.5170
     28 O          22.4712   73.7592    2.0130 O.3     1  UNL1       -0.2858
     29 O          24.1143   73.4714    3.6942 O.3     1  UNL1       -0.3226
     30 O          20.6193   73.2184    5.8825 O.3     1  UNL1       -0.3794
     31 O          20.8384   71.9008    3.2844 O.3     1  UNL1       -0.3775
     32 O          22.2343   75.6333    5.9864 O.3     1  UNL1       -0.3792
     33 C          21.4640   73.6688    4.8235 C.3     1  UNL1        0.1718
     34 C          21.9307   72.4707    3.9963 C.3     1  UNL1        0.1968
     35 C          22.6641   74.3845    5.4476 C.3     1  UNL1        0.1723
     36 C          23.0143   72.8831    2.9991 C.3     1  UNL1        0.2706
     37 C          23.7546   74.6488    4.4135 C.3     1  UNL1        0.1830
     38 H          19.8495   72.7603    5.5098 H       1  UNL1        0.2105
     39 H          20.1469   71.6371    3.9110 H       1  UNL1        0.2106
     40 H          21.5400   75.4791    6.6459 H       1  UNL1        0.2106
     41 O          24.8998   76.2306    5.7129 O.co2   1  UNL1       -0.5466
     42 O          26.0627   74.3801    5.0631 O.co2   1  UNL1       -0.5466
     43 C          25.0339   75.0390    5.0796 C.2     1  UNL1        0.0799
@<TRIPOS>UNITY_ATOM_ATTR
2 1
charge -1
26 1
charge -1
41 1
charge -1
@<TRIPOS>BOND
     1     1     4    1
     2     1    24    1
     3     1     2    1
     4     1     3    2
     5    25    28    1
     6    25    24    1
     7    25    26    1
     8    25    27    2
     9     6    11    1
    10     6    12    1
    11    29    36    1
    12    29    37    1
    13     7     9    1
    14     7    13    1
    15     8    10    1
    16     8    14    1
    17     4     5    1
    18    28    36    1
    19    30    33    1
    20    30    38    1
    21    31    34    1
    22    31    39    1
    23    32    35    1
    24    32    40    1
    25    41    43   ar
    26    15    19    2
    27    42    43   ar
    28    16    22    2
    29    17    12    1
    30    17    19   ar
    31    17    20   ar
    32    18    19   ar
    33    18    22   ar
    34    18    23    1
    35     9    10    1
    36     9    11    1
    37    10    12    1
    38    11     5    1
    39    33    34    1
    40    33    35    1
    41    34    36    1
    42    35    37    1
    43    37    43    1
    44    20    21   ar
    45    21    22   ar
@<TRIPOS>MOLECULE
*****
 43 45 0 0 0
SMALL
GASTEIGER

@<TRIPOS>ATOM
      1 P          23.2449   74.2838   -4.1249 P.3     1  UNL1        0.2189
      2 O          23.9392   75.1812   -5.2789 O.co2   1  UNL1       -0.4371
      3 O          23.8021   72.8982   -3.9788 O.2     1  UNL1       -0.5170
      4 O          21.6647   74.3739   -4.4607 O.3     1  UNL1       -0.3112
      5 C          20.8829   73.1982   -4.3552 C.3     1  UNL1        0.1811
      6 O          18.8729   73.6429   -5.5960 O.3     1  UNL1       -0.3308
      7 O          17.4084   73.2324   -3.0118 O.3     1  UNL1       -0.3794
      8 O          17.0278   70.8572   -4.2962 O.3     1  UNL1       -0.3779
      9 C          18.5688   72.5652   -3.5087 C.3     1  UNL1        0.1713
     10 C          18.1868   71.6002   -4.6110 C.3     1  UNL1        0.1895
     11 C          19.4133   73.5868   -4.2581 C.3     1  UNL1        0.1764
     12 C          17.9798   72.5348   -5.7907 C.3     1  UNL1        0.2383
     13 H          16.8531   72.5997   -2.5291 H       1  UNL1        0.2105
     14 H          17.2109   70.2777   -3.5394 H       1  UNL1        0.2106
     15 O          16.2024   70.8513   -7.1989 O.2     1  UNL1       -0.2464
     16 O          19.2413   70.1824  -10.5992 O.2     1  UNL1       -0.2670
     17 N          18.2809   71.9074   -7.0463 N.ar    1  UNL1       -0.2551
     18 N          17.7181   70.5189   -8.8906 N.ar    1  UNL1       -0.2743
     19 C          17.3179   71.0798   -7.6706 C.ar    1  UNL1        0.3323
     20 C          19.5165   72.1155   -7.6469 C.ar    1  UNL1        0.0869
     21 C          19.8835   71.5741   -8.8101 C.ar    1  UNL1        0.0795
     22 C          18.9359   70.6959   -9.5271 C.ar    1  UNL1        0.2626
     23 H          17.0652   69.9373   -9.3432 H       1  UNL1        0.1734
     24 O          23.3900   75.2103   -2.8083 O.3     1  UNL1       -0.2703
     25 P          22.6639   75.1266   -1.3663 P.3     1  UNL1        0.2208
     26 O          21.1756   75.6870   -1.6686 O.co2   1  UNL1       -0.4371
     27 O          23.3873   75.8530   -0.2695 O.2     1  UNL1       -0.5170
     28 O          22.4588   73.5484   -1.1023 O.3     1  UNL1       -0.2858
     29 O          20.7141   71.9682   -1.3634 O.3     1  UNL1       -0.3226
     30 O          22.1989   70.9733    2.3613 O.3     1  UNL1       -0.3794
     31 O          21.8558   73.7738    1.6036 O.3     1  UNL1       -0.3775
     32 O          22.8202   69.3187    0.0532 O.3     1  UNL1       -0.3792
     33 C          22.2631   71.4547    1.0189 C.3     1  UNL1        0.1718
     34 C          21.3464   72.6687    0.8661 C.3     1  UNL1        0.1968
     35 C          21.8109   70.3260    0.0896 C.3     1  UNL1        0.1723
     36 C          21.2109   73.0704   -0.6033 C.3     1  UNL1        0.2706
     37 C          21.5768   70.8334   -1.3303 C.3     1  UNL1        0.1830
     38 H          22.4818   71.6738    2.9701 H       1  UNL1        0.2105
     39 H          21.9446   73.5258    2.5369 H       1  UNL1        0.2106
     40 H          22.9789   68.9874    0.9509 H       1  UNL1        0.2106
     41 O          19.5577   69.6960   -1.6921 O.co2   1  UNL1       -0.5466
     42 O          21.2978   69.1924   -3.0769 O.co2   1  UNL1       -0.5466
     43 C          20.8318   69.8219   -2.1390 C.2     1  UNL1        0.0799
@<TRIPOS>UNITY_ATOM_ATTR
2 1
charge -1
26 1
charge -1
41 1
charge -1
@<TRIPOS>BOND
     1     1     4    1
     2     1    24    1
     3     1     2    1
     4     1     3    2
     5    25    28    1
     6    25    24    1
     7    25    26    1
     8    25    27    2
     9     6    11    1
    10     6    12    1
    11    29    36    1
    12    29    37    1
    13     7     9    1
    14     7    13    1
    15     8    10    1
    16     8    14    1
    17     4     5    1
    18    28    36    1
    19    30    33    1
    20    30    38    1
    21    31    34    1
    22    31    39    1
    23    32    35    1
    24    32    40    1
    25    41    43   ar
    26    15    19    2
    27    42    43   ar
    28    16    22    2
    29    17    12    1
    30    17    19   ar
    31    17    20   ar
    32    18    19   ar
    33    18    22   ar
    34    18    23    1
    35     9    10    1
    36     9    11    1
    37    10    12    1
    38    11     5    1
    39    33    34    1
    40    33    35    1
    41    34    36    1
    42    35    37    1
    43    37    43    1
    44    20    21   ar
    45    21    22   ar
@<TRIPOS>MOLECULE
*****
 43 45 0 0 0
SMALL
GASTEIGER

@<TRIPOS>ATOM
      1 P          22.3404   71.0558   -3.0262 P.3     1  UNL1        0.2189
      2 O          23.7906   70.3764   -3.2588 O.co2   1  UNL1       -0.4371
      3 O          21.9988   72.1623   -3.9806 O.2     1  UNL1       -0.5170
      4 O          22.3461   71.4567   -1.4587 O.3     1  UNL1       -0.3112
      5 C          22.4489   72.8253   -1.1112 C.3     1  UNL1        0.1811
      6 O          20.5208   73.0238    0.3103 O.3     1  UNL1       -0.3308
      7 O          19.7243   75.3485   -1.4082 O.3     1  UNL1       -0.3794
      8 O          20.7914   76.5672    0.7855 O.3     1  UNL1       -0.3779
      9 C          21.0271   74.9320   -0.9986 C.3     1  UNL1        0.1713
     10 C          21.2520   75.2725    0.4594 C.3     1  UNL1        0.1895
     11 C          21.0486   73.4098   -0.9773 C.3     1  UNL1        0.1764
     12 C          20.4678   74.1783    1.1634 C.3     1  UNL1        0.2383
     13 H          19.6862   76.3179   -1.4294 H       1  UNL1        0.2105
     14 H          21.3224   77.2279    0.3127 H       1  UNL1        0.2106
     15 O          21.1493   71.5567    1.9629 O.2     1  UNL1       -0.2464
     16 O          22.6028   72.9980    6.0925 O.2     1  UNL1       -0.2670
     17 N          21.0261   73.8400    2.4419 N.ar    1  UNL1       -0.2551
     18 N          21.8716   72.2769    4.0193 N.ar    1  UNL1       -0.2743
     19 C          21.3326   72.4921    2.7440 C.ar    1  UNL1        0.3323
     20 C          21.2659   74.8370    3.3797 C.ar    1  UNL1        0.0869
     21 C          21.7802   74.6165    4.5912 C.ar    1  UNL1        0.0795
     22 C          22.1276   73.2356    4.9862 C.ar    1  UNL1        0.2626
     23 H          22.0912   71.3461    4.2532 H       1  UNL1        0.1734
     24 O          21.3351   69.7909   -3.0742 O.3     1  UNL1       -0.2703
     25 P          19.7375   69.7131   -3.3089 P.3     1  UNL1        0.2208
     26 O          19.1829   71.0071   -2.5100 O.co2   1  UNL1       -0.4371
     27 O          19.1158   68.4130   -2.8878 O.2     1  UNL1       -0.5170
     28 O          19.5344   70.0787   -4.8670 O.3     1  UNL1       -0.2858
     29 O          19.6882   71.9494   -6.3113 O.3     1  UNL1       -0.3226
     30 O          15.9883   70.4118   -7.3183 O.3     1  UNL1       -0.3794
     31 O          16.8175   70.5634   -4.5212 O.3     1  UNL1       -0.3775
     32 O          18.2656   70.0056   -9.0789 O.3     1  UNL1       -0.3792
     33 C          17.3460   70.3593   -6.8803 C.3     1  UNL1        0.1718
     34 C          17.5037   71.1837   -5.6024 C.3     1  UNL1        0.1968
     35 C          18.2249   70.9315   -7.9947 C.3     1  UNL1        0.1723
     36 C          18.9789   71.3410   -5.2314 C.3     1  UNL1        0.2706
     37 C          19.6506   71.1769   -7.5092 C.3     1  UNL1        0.1830
     38 H          15.4108   70.0532   -6.6260 H       1  UNL1        0.2105
     39 H          15.8808   70.4602   -4.7499 H       1  UNL1        0.2106
     40 H          17.3643   69.8406   -9.3972 H       1  UNL1        0.2106
     41 O          21.4945   72.5752   -7.8917 O.co2   1  UNL1       -0.5466
     42 O          20.0861   72.2077   -9.6468 O.co2   1  UNL1       -0.5466
     43 C          20.4027   72.0274   -8.4805 C.2     1  UNL1        0.0799
@<TRIPOS>UNITY_ATOM_ATTR
2 1
charge -1
26 1
charge -1
41 1
charge -1
@<TRIPOS>BOND
     1     1     4    1
     2     1    24    1
     3     1     2    1
     4     1     3    2
     5    25    28    1
     6    25    24    1
     7    25    26    1
     8    25    27    2
     9     6    11    1
    10     6    12    1
    11    29    36    1
    12    29    37    1
    13     7     9    1
    14     7    13    1
    15     8    10    1
    16     8    14    1
    17     4     5    1
    18    28    36    1
    19    30    33    1
    20    30    38    1
    21    31    34    1
    22    31    39    1
    23    32    35    1
    24    32    40    1
    25    41    43   ar
    26    15    19    2
    27    42    43   ar
    28    16    22    2
    29    17    12    1
    30    17    19   ar
    31    17    20   ar
    32    18    19   ar
    33    18    22   ar
    34    18    23    1
    35     9    10    1
    36     9    11    1
    37    10    12    1
    38    11     5    1
    39    33    34    1
    40    33    35    1
    41    34    36    1
    42    35    37    1
    43    37    43    1
    44    20    21   ar
    45    21    22   ar
@<TRIPOS>MOLECULE
*****
 43 45 0 0 0
SMALL
GASTEIGER

@<TRIPOS>ATOM
      1 P          21.9647   74.9409   -7.3467 P.3     1  UNL1        0.2189
      2 O          20.7643   76.0124   -7.5193 O.co2   1  UNL1       -0.4371
      3 O          23.3469   75.5193   -7.4285 O.2     1  UNL1       -0.5170
      4 O          21.6186   73.7917   -8.4319 O.3     1  UNL1       -0.3112
      5 C          21.4366   72.4638   -7.9757 C.3     1  UNL1        0.1811
      6 O          19.9447   70.5910   -8.1864 O.3     1  UNL1       -0.3308
      7 O          18.6191   72.1328  -10.3902 O.3     1  UNL1       -0.3794
      8 O          16.9370   72.5400   -8.2828 O.3     1  UNL1       -0.3779
      9 C          19.1978   72.6096   -9.1752 C.3     1  UNL1        0.1713
     10 C          18.2973   72.2838   -8.0025 C.3     1  UNL1        0.1895
     11 C          20.4280   71.7635   -8.8771 C.3     1  UNL1        0.1764
     12 C          18.5820   70.8072   -7.7871 C.3     1  UNL1        0.2383
     13 H          17.8311   72.6583  -10.6015 H       1  UNL1        0.2105
     14 H          16.8074   73.4932   -8.4117 H       1  UNL1        0.2106
     15 O          16.1702   69.8702   -6.6548 O.2     1  UNL1       -0.2464
     16 O          18.1135   69.3281   -2.5107 O.2     1  UNL1       -0.2670
     17 N          18.4296   70.4143   -6.4147 N.ar    1  UNL1       -0.2551
     18 N          17.1401   69.6021   -4.5916 N.ar    1  UNL1       -0.2743
     19 C          17.1749   69.9580   -5.9463 C.ar    1  UNL1        0.3323
     20 C          19.5149   70.4813   -5.5495 C.ar    1  UNL1        0.0869
     21 C          19.4665   70.1385   -4.2608 C.ar    1  UNL1        0.0795
     22 C          18.1925   69.6521   -3.6918 C.ar    1  UNL1        0.2626
     23 H          16.2767   69.2833   -4.2420 H       1  UNL1        0.1734
     24 O          21.6153   74.2281   -5.9386 O.3     1  UNL1       -0.2703
     25 P          20.8245   74.7757   -4.6392 P.3     1  UNL1        0.2208
     26 O          19.2691   74.6116   -5.0565 O.co2   1  UNL1       -0.4371
     27 O          21.2101   76.1660   -4.2243 O.2     1  UNL1       -0.5170
     28 O          21.0641   73.6492   -3.5095 O.3     1  UNL1       -0.2858
     29 O          21.9306   73.4740   -1.3124 O.3     1  UNL1       -0.3226
     30 O          23.8375   70.3447   -3.2202 O.3     1  UNL1       -0.3794
     31 O          23.5415   72.9296   -4.5489 O.3     1  UNL1       -0.3775
     32 O          21.6192   69.8196   -1.4162 O.3     1  UNL1       -0.3792
     33 C          22.7726   71.2606   -2.9648 C.3     1  UNL1        0.1718
     34 C          23.2678   72.6920   -3.1729 C.3     1  UNL1        0.1968
     35 C          22.3139   71.0611   -1.5185 C.3     1  UNL1        0.1723
     36 C          22.2298   73.7057   -2.6894 C.3     1  UNL1        0.2706
     37 C          21.3794   72.1813   -1.0709 C.3     1  UNL1        0.1830
     38 H          24.1454   70.4533   -4.1338 H       1  UNL1        0.2105
     39 H          24.1993   72.2897   -4.8625 H       1  UNL1        0.2106
     40 H          22.2029   69.0982   -1.6984 H       1  UNL1        0.2106
     41 O          20.8656   73.3954    0.8691 O.co2   1  UNL1       -0.5466
     42 O          21.3388   71.1794    1.1236 O.co2   1  UNL1       -0.5466
     43 C          21.2027   72.1637    0.4126 C.2     1  UNL1        0.0799
@<TRIPOS>UNITY_ATOM_ATTR
2 1
charge -1
26 1
charge -1
41 1
charge -1
@<TRIPOS>BOND
     1     1     4    1
     2     1    24    1
     3     1     2    1
     4     1     3    2
     5    25    28    1
     6    25    24    1
     7    25    26    1
     8    25    27    2
     9     6    11    1
    10     6    12    1
    11    29    36    1
    12    29    37    1
    13     7     9    1
    14     7    13    1
    15     8    10    1
    16     8    14    1
    17     4     5    1
    18    28    36    1
    19    30    33    1
    20    30    38    1
    21    31    34    1
    22    31    39    1
    23    32    35    1
    24    32    40    1
    25    41    43   ar
    26    15    19    2
    27    42    43   ar
    28    16    22    2
    29    17    12    1
    30    17    19   ar
    31    17    20   ar
    32    18    19   ar
    33    18    22   ar
    34    18    23    1
    35     9    10    1
    36     9    11    1
    37    10    12    1
    38    11     5    1
    39    33    34    1
    40    33    35    1
    41    34    36    1
    42    35    37    1
    43    37    43    1
    44    20    21   ar
    45    21    22   ar
@<TRIPOS>MOLECULE
*****
 43 45 0 0 0
SMALL
GASTEIGER

@<TRIPOS>ATOM
      1 P          23.1186   72.4505   -3.4452 P.3     1  UNL1        0.2189
      2 O          23.3780   70.8748   -3.1827 O.co2   1  UNL1       -0.4371
      3 O          24.2863   73.1977   -4.0195 O.2     1  UNL1       -0.5170
      4 O          22.5654   72.9949   -2.0255 O.3     1  UNL1       -0.3112
      5 C          22.2167   72.0516   -1.0290 C.3     1  UNL1        0.1811
      6 O          21.0196   72.4228    1.0220 O.3     1  UNL1       -0.3308
      7 O          19.0361   73.9496   -0.6292 O.3     1  UNL1       -0.3794
      8 O          20.5168   75.9356    0.5107 O.3     1  UNL1       -0.3779
      9 C          20.4548   73.8682   -0.7676 C.3     1  UNL1        0.1713
     10 C          21.1345   74.6809    0.3140 C.3     1  UNL1        0.1895
     11 C          20.8806   72.4495   -0.4151 C.3     1  UNL1        0.1764
     12 C          21.0044   73.7692    1.5222 C.3     1  UNL1        0.2383
     13 H          18.7404   74.8472   -0.8492 H       1  UNL1        0.2105
     14 H          20.6274   76.4789   -0.2860 H       1  UNL1        0.2106
     15 O          20.8582   73.1264    4.2685 O.2     1  UNL1       -0.2464
     16 O          25.2149   74.4433    4.9956 O.2     1  UNL1       -0.2670
     17 N          22.0857   73.9341    2.4520 N.ar    1  UNL1       -0.2551
     18 N          23.0279   73.7839    4.6282 N.ar    1  UNL1       -0.2743
     19 C          21.9084   73.5808    3.8106 C.ar    1  UNL1        0.3323
     20 C          23.3047   74.4388    2.0158 C.ar    1  UNL1        0.0869
     21 C          24.3628   74.6266    2.8070 C.ar    1  UNL1        0.0795
     22 C          24.2607   74.2834    4.2406 C.ar    1  UNL1        0.2626
     23 H          22.9279   73.5471    5.5786 H       1  UNL1        0.1734
     24 O          21.7961   72.4506   -4.3747 O.3     1  UNL1       -0.2703
     25 P          21.4525   73.2595   -5.7316 P.3     1  UNL1        0.2208
     26 O          22.6373   72.8114   -6.7394 O.co2   1  UNL1       -0.4371
     27 O          21.3253   74.7441   -5.5480 O.2     1  UNL1       -0.5170
     28 O          20.1302   72.5410   -6.3127 O.3     1  UNL1       -0.2858
     29 O          19.1211   70.4320   -5.9348 O.3     1  UNL1       -0.3226
     30 O          18.5042   70.9451   -9.9875 O.3     1  UNL1       -0.3794
     31 O          21.0664   71.6565   -8.7779 O.3     1  UNL1       -0.3775
     32 O          16.3091   71.3186   -8.1185 O.3     1  UNL1       -0.3792
     33 C          18.6630   71.3597   -8.6307 C.3     1  UNL1        0.1718
     34 C          20.0374   70.9259   -8.1206 C.3     1  UNL1        0.1968
     35 C          17.5563   70.7028   -7.8028 C.3     1  UNL1        0.1723
     36 C          20.1557   71.1466   -6.6119 C.3     1  UNL1        0.2706
     37 C          17.8125   70.8590   -6.3066 C.3     1  UNL1        0.1830
     38 H          19.1968   71.3503  -10.5328 H       1  UNL1        0.2105
     39 H          20.9972   71.5212   -9.7356 H       1  UNL1        0.2106
     40 H          16.1341   71.2264   -9.0681 H       1  UNL1        0.2106
     41 O          16.2323   69.1260   -6.3427 O.co2   1  UNL1       -0.5466
     42 O          16.8357   69.9411   -4.3005 O.co2   1  UNL1       -0.5466
     43 C          16.9265   69.9497   -5.5189 C.2     1  UNL1        0.0799
@<TRIPOS>UNITY_ATOM_ATTR
2 1
charge -1
26 1
charge -1
41 1
charge -1
@<TRIPOS>BOND
     1     1     4    1
     2     1    24    1
     3     1     2    1
     4     1     3    2
     5    25    28    1
     6    25    24    1
     7    25    26    1
     8    25    27    2
     9     6    11    1
    10     6    12    1
    11    29    36    1
    12    29    37    1
    13     7     9    1
    14     7    13    1
    15     8    10    1
    16     8    14    1
    17     4     5    1
    18    28    36    1
    19    30    33    1
    20    30    38    1
    21    31    34    1
    22    31    39    1
    23    32    35    1
    24    32    40    1
    25    41    43   ar
    26    15    19    2
    27    42    43   ar
    28    16    22    2
    29    17    12    1
    30    17    19   ar
    31    17    20   ar
    32    18    19   ar
    33    18    22   ar
    34    18    23    1
    35     9    10    1
    36     9    11    1
    37    10    12    1
    38    11     5    1
    39    33    34    1
    40    33    35    1
    41    34    36    1
    42    35    37    1
    43    37    43    1
    44    20    21   ar
    45    21    22   ar
@<TRIPOS>MOLECULE
*****
 43 45 0 0 0
SMALL
GASTEIGER

@<TRIPOS>ATOM
      1 P          22.6280   71.7194   -2.8321 P.3     1  UNL1        0.2189
      2 O          21.6862   72.9229   -2.2993 O.co2   1  UNL1       -0.4371
      3 O          23.7687   72.1478   -3.7079 O.2     1  UNL1       -0.5170
      4 O          21.5856   70.6754   -3.4965 O.3     1  UNL1       -0.3112
      5 C          20.4598   71.1893   -4.1843 C.3     1  UNL1        0.1811
      6 O          18.1798   71.8395   -3.7886 O.3     1  UNL1       -0.3308
      7 O          17.8601   69.1950   -2.4116 O.3     1  UNL1       -0.3794
      8 O          16.7342   68.7359   -4.8524 O.3     1  UNL1       -0.3779
      9 C          18.6376   69.5265   -3.5624 C.3     1  UNL1        0.1713
     10 C          17.7375   69.7258   -4.7634 C.3     1  UNL1        0.1895
     11 C          19.2088   70.9228   -3.3571 C.3     1  UNL1        0.1764
     12 C          17.1705   71.1115   -4.5060 C.3     1  UNL1        0.2383
     13 H          17.4846   68.3067   -2.5196 H       1  UNL1        0.2105
     14 H          17.1457   67.8724   -5.0169 H       1  UNL1        0.2106
     15 O          16.1893   69.8828   -6.8521 O.2     1  UNL1       -0.2464
     16 O          16.0293   73.8992   -9.1076 O.2     1  UNL1       -0.2670
     17 N          16.8640   71.8125   -5.7208 N.ar    1  UNL1       -0.2551
     18 N          16.1115   71.8842   -7.9735 N.ar    1  UNL1       -0.2743
     19 C          16.3763   71.1010   -6.8424 C.ar    1  UNL1        0.3323
     20 C          17.0451   73.1883   -5.7922 C.ar    1  UNL1        0.0869
     21 C          16.7881   73.9213   -6.8774 C.ar    1  UNL1        0.0795
     22 C          16.2764   73.2547   -8.0927 C.ar    1  UNL1        0.2626
     23 H          15.7731   71.4108   -8.7676 H       1  UNL1        0.1734
     24 O          23.0698   70.9733   -1.4679 O.3     1  UNL1       -0.2703
     25 P          22.2195   70.5782   -0.1509 P.3     1  UNL1        0.2208
     26 O          22.9464   69.2278    0.3673 O.co2   1  UNL1       -0.4371
     27 O          20.7445   70.4335   -0.3907 O.2     1  UNL1       -0.5170
     28 O          22.6134   71.6977    0.9417 O.3     1  UNL1       -0.2858
     29 O          21.1442   73.1133    2.1445 O.3     1  UNL1       -0.3226
     30 O          24.5775   75.4057    1.9850 O.3     1  UNL1       -0.3794
     31 O          23.6857   73.9093   -0.3602 O.3     1  UNL1       -0.3775
     32 O          23.8397   74.0526    4.4498 O.3     1  UNL1       -0.3792
     33 C          23.8185   74.1981    2.0450 C.3     1  UNL1        0.1718
     34 C          22.9115   74.1022    0.8179 C.3     1  UNL1        0.1968
     35 C          22.9805   74.2294    3.3251 C.3     1  UNL1        0.1723
     36 C          21.9216   72.9450    0.9584 C.3     1  UNL1        0.2706
     37 C          21.9329   73.1199    3.3324 C.3     1  UNL1        0.1830
     38 H          25.1181   75.4083    1.1793 H       1  UNL1        0.2105
     39 H          24.3163   74.6398   -0.4555 H       1  UNL1        0.2106
     40 H          24.5113   74.7524    4.4568 H       1  UNL1        0.2106
     41 O          21.4787   73.1992    5.6322 O.co2   1  UNL1       -0.5466
     42 O          19.7496   73.6457    4.2144 O.co2   1  UNL1       -0.5466
     43 C          20.9204   73.3534    4.4060 C.2     1  UNL1        0.0799
@<TRIPOS>UNITY_ATOM_ATTR
2 1
charge -1
26 1
charge -1
41 1
charge -1
@<TRIPOS>BOND
     1     1     4    1
     2     1    24    1
     3     1     2    1
     4     1     3    2
     5    25    28    1
     6    25    24    1
     7    25    26    1
     8    25    27    2
     9     6    11    1
    10     6    12    1
    11    29    36    1
    12    29    37    1
    13     7     9    1
    14     7    13    1
    15     8    10    1
    16     8    14    1
    17     4     5    1
    18    28    36    1
    19    30    33    1
    20    30    38    1
    21    31    34    1
    22    31    39    1
    23    32    35    1
    24    32    40    1
    25    41    43   ar
    26    15    19    2
    27    42    43   ar
    28    16    22    2
    29    17    12    1
    30    17    19   ar
    31    17    20   ar
    32    18    19   ar
    33    18    22   ar
    34    18    23    1
    35     9    10    1
    36     9    11    1
    37    10    12    1
    38    11     5    1
    39    33    34    1
    40    33    35    1
    41    34    36    1
    42    35    37    1
    43    37    43    1
    44    20    21   ar
    45    21    22   ar
@<TRIPOS>MOLECULE
*****
 43 45 0 0 0
SMALL
GASTEIGER

@<TRIPOS>ATOM
      1 P          16.9051   70.4365   -6.0243 P.3     1  UNL1        0.2189
      2 O          16.0383   69.2647   -6.7275 O.co2   1  UNL1       -0.4371
      3 O          16.1593   71.7149   -5.7772 O.2     1  UNL1       -0.5170
      4 O          18.2209   70.5598   -6.9578 O.3     1  UNL1       -0.3112
      5 C          18.0598   70.5087   -8.3635 C.3     1  UNL1        0.1811
      6 O          18.1874   72.3724   -9.8761 O.3     1  UNL1       -0.3308
      7 O          20.8209   72.9996   -8.5866 O.3     1  UNL1       -0.3794
      8 O          19.1347   74.7810   -7.3951 O.3     1  UNL1       -0.3779
      9 C          19.6286   72.4781   -7.9993 C.3     1  UNL1        0.1713
     10 C          18.5869   73.5693   -7.8708 C.3     1  UNL1        0.1895
     11 C          18.9816   71.5370   -9.0063 C.3     1  UNL1        0.1764
     12 C          18.0696   73.6806   -9.2948 C.3     1  UNL1        0.2383
     13 H          21.2520   73.6039   -7.9616 H       1  UNL1        0.2105
     14 H          19.4496   74.6583   -6.4853 H       1  UNL1        0.2106
     15 O          16.7777   74.6280  -11.6208 O.2     1  UNL1       -0.2464
     16 O          12.7949   75.2357   -9.3819 O.2     1  UNL1       -0.2670
     17 N          16.6956   74.0932   -9.3479 N.ar    1  UNL1       -0.2551
     18 N          14.7956   74.9307  -10.5033 N.ar    1  UNL1       -0.2743
     19 C          16.1434   74.5535  -10.5667 C.ar    1  UNL1        0.3323
     20 C          15.9101   74.0381   -8.2030 C.ar    1  UNL1        0.0869
     21 C          14.6267   74.4010   -8.1581 C.ar    1  UNL1        0.0795
     22 C          13.9738   74.8943   -9.3884 C.ar    1  UNL1        0.2626
     23 H          14.3896   75.2565  -11.3389 H       1  UNL1        0.1734
     24 O          17.4714   69.7188   -4.6912 O.3     1  UNL1       -0.2703
     25 P          18.0156   70.3395   -3.3012 P.3     1  UNL1        0.2208
     26 O          18.4736   69.0307   -2.4660 O.co2   1  UNL1       -0.4371
     27 O          17.0252   71.2133   -2.5874 O.2     1  UNL1       -0.5170
     28 O          19.3964   71.0753   -3.6944 O.3     1  UNL1       -0.2858
     29 O          20.5215   71.5325   -1.6612 O.3     1  UNL1       -0.3226
     30 O          23.2170   72.9527   -4.4514 O.3     1  UNL1       -0.3794
     31 O          20.3565   73.4555   -4.7662 O.3     1  UNL1       -0.3775
     32 O          23.7072   70.4235   -3.1047 O.3     1  UNL1       -0.3792
     33 C          22.1919   72.0960   -3.9482 C.3     1  UNL1        0.1718
     34 C          20.9598   72.9275   -3.5906 C.3     1  UNL1        0.1968
     35 C          22.7353   71.3879   -2.7051 C.3     1  UNL1        0.1723
     36 C          19.9299   72.0838   -2.8382 C.3     1  UNL1        0.2706
     37 C          21.6245   70.6732   -1.9409 C.3     1  UNL1        0.1830
     38 H          22.8944   73.4136   -5.2418 H       1  UNL1        0.2105
     39 H          21.0045   73.9918   -5.2487 H       1  UNL1        0.2106
     40 H          24.4198   70.8654   -3.5923 H       1  UNL1        0.2106
     41 O          23.4276   70.0438   -0.5792 O.co2   1  UNL1       -0.5466
     42 O          21.3738   70.1639    0.4041 O.co2   1  UNL1       -0.5466
     43 C          22.0908   70.2718   -0.5794 C.2     1  UNL1        0.0799
@<TRIPOS>UNITY_ATOM_ATTR
2 1
charge -1
26 1
charge -1
41 1
charge -1
@<TRIPOS>BOND
     1     1     4    1
     2     1    24    1
     3     1     2    1
     4     1     3    2
     5    25    28    1
     6    25    24    1
     7    25    26    1
     8    25    27    2
     9     6    11    1
    10     6    12    1
    11    29    36    1
    12    29    37    1
    13     7     9    1
    14     7    13    1
    15     8    10    1
    16     8    14    1
    17     4     5    1
    18    28    36    1
    19    30    33    1
    20    30    38    1
    21    31    34    1
    22    31    39    1
    23    32    35    1
    24    32    40    1
    25    41    43   ar
    26    15    19    2
    27    42    43   ar
    28    16    22    2
    29    17    12    1
    30    17    19   ar
    31    17    20   ar
    32    18    19   ar
    33    18    22   ar
    34    18    23    1
    35     9    10    1
    36     9    11    1
    37    10    12    1
    38    11     5    1
    39    33    34    1
    40    33    35    1
    41    34    36    1
    42    35    37    1
    43    37    43    1
    44    20    21   ar
    45    21    22   ar
