@<TRIPOS>MOLECULE
UDP-glaA
 43 45 0 0 0
SMALL
GASTEIGER

@<TRIPOS>ATOM
      1 P          22.2039   71.7630   -3.1315 P.3     1  UNL1        0.2189
      2 O          21.6971   73.2789   -2.8815 O.3     1  UNL1       -0.4371
      3 O          23.6467   71.6347   -3.5240 O.2     1  UNL1       -0.5170
      4 O          21.1330   71.1628   -4.1843 O.3     1  UNL1       -0.3112
      5 C          20.2277   70.1681   -3.7369 C.3     1  UNL1        0.1811
      6 O          18.5515   71.4877   -4.8430 O.3     1  UNL1       -0.3308
      7 O          16.6187   70.3720   -2.8403 O.3     1  UNL1       -0.3794
      8 O          16.1173   68.8637   -5.0560 O.3     1  UNL1       -0.3779
      9 C          17.7350   69.7405   -3.4670 C.3     1  UNL1        0.1713
     10 C          17.4110   69.4117   -4.9090 C.3     1  UNL1        0.1895
     11 C          18.8388   70.7791   -3.6172 C.3     1  UNL1        0.1764
     12 C          17.5509   70.7671   -5.5810 C.3     1  UNL1        0.2383
     13 H          16.8856   70.5986   -1.9331 H       1  UNL1        0.2105
     14 H          16.0764   68.0595   -4.5104 H       1  UNL1        0.2106
     15 O          15.7936   70.3758   -7.7569 O.2     1  UNL1       -0.2464
     16 O          19.2613   70.3679  -10.7923 O.2     1  UNL1       -0.2670
     17 N          17.9671   70.6598   -6.9502 N.ar    1  UNL1       -0.2551
     18 N          17.5216   70.3716   -9.2669 N.ar    1  UNL1       -0.2743
     19 C          17.0046   70.4630   -7.9679 C.ar    1  UNL1        0.3323
     20 C          19.3165   70.7493   -7.2735 C.ar    1  UNL1        0.0869
     21 C          19.7935   70.6607   -8.5170 C.ar    1  UNL1        0.0795
     22 C          18.8548   70.4542   -9.6376 C.ar    1  UNL1        0.2626
     23 H          16.8479   70.2295  -10.0147 H       1  UNL1        0.1734
     24 O          21.8127   71.0177   -1.7508 O.3     1  UNL1       -0.2703
     25 P          21.1915   71.5937   -0.3742 P.3     1  UNL1        0.2208
     26 O          21.1927   70.3038    0.6017 O.3     1  UNL1       -0.4371
     27 O          19.8502   72.2511   -0.5312 O.2     1  UNL1       -0.5170
     28 O          22.3406   72.5574    0.2213 O.3     1  UNL1       -0.2858
     29 O          23.4430   71.8268    2.1835 O.3     1  UNL1       -0.3226
     30 O          24.6047   75.8120    1.9645 O.3     1  UNL1       -0.3794
     31 O          21.8627   75.0319    1.3487 O.3     1  UNL1       -0.3775
     32 O          25.2760   73.6085    3.4890 O.3     1  UNL1       -0.3792
     33 C          24.2320   74.5146    1.5081 C.3     1  UNL1        0.1718
     34 C          22.8119   74.1726    1.9713 C.3     1  UNL1        0.1968
     35 C          25.2252   73.4901    2.0634 C.3     1  UNL1        0.1723
     36 C          22.4662   72.7169    1.6337 C.3     1  UNL1        0.2706
     37 C          24.7626   72.0798    1.7037 C.3     1  UNL1        0.1830
     38 H          25.5088   75.9847    1.6511 H       1  UNL1        0.2105
     39 H          20.9807   74.7723    1.6641 H       1  UNL1        0.2106
     40 H          24.4602   73.2313    3.8596 H       1  UNL1        0.2106
     41 O          24.9314   69.9043    2.5653 O.co2   1  UNL1       -0.5466
     42 O          26.8154   71.1871    2.6088 O.co2   1  UNL1       -0.5466
     43 C          25.6327   71.0406    2.3361 C.2     1  UNL1        0.0799
@<TRIPOS>UNITY_ATOM_ATTR
41 1
charge -1
@<TRIPOS>BOND
     1     1     4    1
     2     1    24    1
     3     1     2    1
     4     1     3    2
     5    25    28    1
     6    25    24    1
     7    25    26    1
     8    25    27    2
     9     6    11    1
    10     6    12    1
    11    29    36    1
    12    29    37    1
    13     7     9    1
    14     7    13    1
    15     8    10    1
    16     8    14    1
    17     4     5    1
    18    28    36    1
    19    30    33    1
    20    30    38    1
    21    31    34    1
    22    31    39    1
    23    32    35    1
    24    32    40    1
    25    41    43   ar
    26    15    19    2
    27    42    43   ar
    28    16    22    2
    29    17    12    1
    30    17    19   ar
    31    17    20   ar
    32    18    19   ar
    33    18    22   ar
    34    18    23    1
    35     9    10    1
    36     9    11    1
    37    10    12    1
    38    11     5    1
    39    33    34    1
    40    33    35    1
    41    34    36    1
    42    35    37    1
    43    37    43    1
    44    20    21   ar
    45    21    22   ar
@<TRIPOS>MOLECULE
UDP-glaA
 43 45 0 0 0
SMALL
GASTEIGER

@<TRIPOS>ATOM
      1 P          23.0310   71.2967   -2.3635 P.3     1  UNL1        0.2189
      2 O          22.7837   72.8865   -2.5329 O.3     1  UNL1       -0.4371
      3 O          24.2831   70.7786   -3.0083 O.2     1  UNL1       -0.5170
      4 O          21.6492   70.6305   -2.8757 O.3     1  UNL1       -0.3112
      5 C          21.0083   71.1879   -4.0105 C.3     1  UNL1        0.1811
      6 O          18.8805   71.8823   -4.8849 O.3     1  UNL1       -0.3308
      7 O          17.6723   70.5728   -2.4732 O.3     1  UNL1       -0.3794
      8 O          17.2588   68.7173   -4.4281 O.3     1  UNL1       -0.3779
      9 C          18.8047   70.1740   -3.2453 C.3     1  UNL1        0.1713
     10 C          18.3585   69.5926   -4.5703 C.3     1  UNL1        0.1895
     11 C          19.5424   71.4329   -3.6820 C.3     1  UNL1        0.1764
     12 C          18.0121   70.8416   -5.3626 C.3     1  UNL1        0.2383
     13 H          18.0074   70.9737   -1.6531 H       1  UNL1        0.2105
     14 H          17.5276   68.0056   -3.8220 H       1  UNL1        0.2106
     15 O          15.9500   70.3564   -7.2301 O.2     1  UNL1       -0.2464
     16 O          18.9229   70.2023  -10.7482 O.2     1  UNL1       -0.2670
     17 N          18.2187   70.6713   -6.7725 N.ar    1  UNL1       -0.2551
     18 N          17.4318   70.2795   -8.9807 N.ar    1  UNL1       -0.2743
     19 C          17.1153   70.4310   -7.6242 C.ar    1  UNL1        0.3323
     20 C          19.5039   70.7428   -7.2984 C.ar    1  UNL1        0.0869
     21 C          19.7893   70.5967   -8.5941 C.ar    1  UNL1        0.0795
     22 C          18.6940   70.3419   -9.5507 C.ar    1  UNL1        0.2626
     23 H          16.6542   70.1052   -9.6116 H       1  UNL1        0.1734
     24 O          22.9626   71.0881   -0.7613 O.3     1  UNL1       -0.2703
     25 P          21.8013   71.4428    0.3055 P.3     1  UNL1        0.2208
     26 O          21.6604   70.0812    1.1671 O.3     1  UNL1       -0.4371
     27 O          20.5192   71.9190   -0.3153 O.2     1  UNL1       -0.5170
     28 O          22.4841   72.4978    1.3177 O.3     1  UNL1       -0.2858
     29 O          24.2648   72.4616    2.8757 O.3     1  UNL1       -0.3226
     30 O          21.3431   74.5774    4.9412 O.3     1  UNL1       -0.3794
     31 O          20.6324   72.2394    3.3492 O.3     1  UNL1       -0.3775
     32 O          24.0140   73.9730    5.3029 O.3     1  UNL1       -0.3792
     33 C          22.1044   74.1125    3.8301 C.3     1  UNL1        0.1718
     34 C          21.9693   72.5926    3.6882 C.3     1  UNL1        0.1968
     35 C          23.5729   74.4902    4.0432 C.3     1  UNL1        0.1723
     36 C          22.9171   72.0618    2.6055 C.3     1  UNL1        0.2706
     37 C          24.4263   73.8780    2.9346 C.3     1  UNL1        0.1830
     38 H          21.4599   75.5413    4.9941 H       1  UNL1        0.2105
     39 H          20.5980   71.2720    3.2610 H       1  UNL1        0.2106
     40 H          24.1251   73.0108    5.2199 H       1  UNL1        0.2106
     41 O          26.0971   75.3680    3.6362 O.co2   1  UNL1       -0.5466
     42 O          26.7674   73.2892    2.9833 O.co2   1  UNL1       -0.5466
     43 C          25.8840   74.1125    3.1735 C.2     1  UNL1        0.0799
@<TRIPOS>UNITY_ATOM_ATTR
41 1
charge -1
@<TRIPOS>BOND
     1     1     4    1
     2     1    24    1
     3     1     2    1
     4     1     3    2
     5    25    28    1
     6    25    24    1
     7    25    26    1
     8    25    27    2
     9     6    11    1
    10     6    12    1
    11    29    36    1
    12    29    37    1
    13     7     9    1
    14     7    13    1
    15     8    10    1
    16     8    14    1
    17     4     5    1
    18    28    36    1
    19    30    33    1
    20    30    38    1
    21    31    34    1
    22    31    39    1
    23    32    35    1
    24    32    40    1
    25    41    43   ar
    26    15    19    2
    27    42    43   ar
    28    16    22    2
    29    17    12    1
    30    17    19   ar
    31    17    20   ar
    32    18    19   ar
    33    18    22   ar
    34    18    23    1
    35     9    10    1
    36     9    11    1
    37    10    12    1
    38    11     5    1
    39    33    34    1
    40    33    35    1
    41    34    36    1
    42    35    37    1
    43    37    43    1
    44    20    21   ar
    45    21    22   ar
@<TRIPOS>MOLECULE
UDP-glaA
 43 45 0 0 0
SMALL
GASTEIGER

@<TRIPOS>ATOM
      1 P          22.5717   72.4190   -4.5011 P.3     1  UNL1        0.2189
      2 O          23.0022   72.4727   -6.0597 O.3     1  UNL1       -0.4371
      3 O          23.2471   71.3488   -3.6944 O.2     1  UNL1       -0.5170
      4 O          20.9564   72.3521   -4.5451 O.3     1  UNL1       -0.3112
      5 C          20.3034   71.2944   -3.8640 C.3     1  UNL1        0.1811
      6 O          18.3714   72.0611   -5.0696 O.3     1  UNL1       -0.3308
      7 O          16.7442   70.8474   -2.8628 O.3     1  UNL1       -0.3794
      8 O          16.5600   68.9755   -4.8372 O.3     1  UNL1       -0.3779
      9 C          17.9647   70.3875   -3.4429 C.3     1  UNL1        0.1713
     10 C          17.7060   69.8013   -4.8148 C.3     1  UNL1        0.1895
     11 C          18.8165   71.6063   -3.7726 C.3     1  UNL1        0.1764
     12 C          17.5433   71.0491   -5.6659 C.3     1  UNL1        0.2383
     13 H          16.9642   71.2488   -2.0049 H       1  UNL1        0.2105
     14 H          16.6990   68.2643   -4.1883 H       1  UNL1        0.2106
     15 O          15.8237   70.2540   -7.7602 O.2     1  UNL1       -0.2464
     16 O          19.2542   70.2934  -10.8374 O.2     1  UNL1       -0.2670
     17 N          17.9601   70.8447   -7.0238 N.ar    1  UNL1       -0.2551
     18 N          17.5332   70.2736   -9.2910 N.ar    1  UNL1       -0.2743
     19 C          17.0175   70.4446   -7.9995 C.ar    1  UNL1        0.3323
     20 C          19.2906   71.0405   -7.3774 C.ar    1  UNL1        0.0869
     21 C          19.7666   70.8738   -8.6132 C.ar    1  UNL1        0.0795
     22 C          18.8480   70.4559   -9.6908 C.ar    1  UNL1        0.2626
     23 H          16.8737   69.9855  -10.0087 H       1  UNL1        0.1734
     24 O          22.8591   73.9273   -3.9937 O.3     1  UNL1       -0.2703
     25 P          24.0681   74.5367   -3.1108 P.3     1  UNL1        0.2208
     26 O          23.5712   76.0421   -2.7901 O.3     1  UNL1       -0.4371
     27 O          25.4146   74.4556   -3.7710 O.2     1  UNL1       -0.5170
     28 O          23.9713   73.7648   -1.6970 O.3     1  UNL1       -0.2858
     29 O          22.0402   73.0383   -0.5384 O.3     1  UNL1       -0.3226
     30 O          24.6815   73.8192    2.5750 O.3     1  UNL1       -0.3794
     31 O          24.5259   75.6113    0.2793 O.3     1  UNL1       -0.3775
     32 O          22.1877   72.6629    2.3034 O.3     1  UNL1       -0.3792
     33 C          24.2428   73.4151    1.2809 C.3     1  UNL1        0.1718
     34 C          23.5758   74.5869    0.5527 C.3     1  UNL1        0.1968
     35 C          23.2500   72.2594    1.4331 C.3     1  UNL1        0.1723
     36 C          22.9490   74.1203   -0.7671 C.3     1  UNL1        0.2706
     37 C          22.6606   71.9063    0.0693 C.3     1  UNL1        0.1830
     38 H          25.0940   73.0475    2.9991 H       1  UNL1        0.2105
     39 H          24.0612   76.3251   -0.1891 H       1  UNL1        0.2106
     40 H          21.6127   73.2821    1.8226 H       1  UNL1        0.2106
     41 O          21.8048   70.0805    1.2684 O.co2   1  UNL1       -0.5466
     42 O          20.6450   70.7453   -0.5781 O.co2   1  UNL1       -0.5466
     43 C          21.5895   70.8691    0.1880 C.2     1  UNL1        0.0799
@<TRIPOS>UNITY_ATOM_ATTR
41 1
charge -1
@<TRIPOS>BOND
     1     1     4    1
     2     1    24    1
     3     1     2    1
     4     1     3    2
     5    25    28    1
     6    25    24    1
     7    25    26    1
     8    25    27    2
     9     6    11    1
    10     6    12    1
    11    29    36    1
    12    29    37    1
    13     7     9    1
    14     7    13    1
    15     8    10    1
    16     8    14    1
    17     4     5    1
    18    28    36    1
    19    30    33    1
    20    30    38    1
    21    31    34    1
    22    31    39    1
    23    32    35    1
    24    32    40    1
    25    41    43   ar
    26    15    19    2
    27    42    43   ar
    28    16    22    2
    29    17    12    1
    30    17    19   ar
    31    17    20   ar
    32    18    19   ar
    33    18    22   ar
    34    18    23    1
    35     9    10    1
    36     9    11    1
    37    10    12    1
    38    11     5    1
    39    33    34    1
    40    33    35    1
    41    34    36    1
    42    35    37    1
    43    37    43    1
    44    20    21   ar
    45    21    22   ar
@<TRIPOS>MOLECULE
UDP-glaA
 43 45 0 0 0
SMALL
GASTEIGER

@<TRIPOS>ATOM
      1 P          21.1463   71.6301   -1.9646 P.3     1  UNL1        0.2189
      2 O          21.5442   73.1893   -2.1314 O.3     1  UNL1       -0.4371
      3 O          22.0016   70.6721   -2.7411 O.2     1  UNL1       -0.5170
      4 O          19.5651   71.5931   -2.3023 O.3     1  UNL1       -0.3112
      5 C          19.1347   70.8887   -3.4545 C.3     1  UNL1        0.1811
      6 O          17.4174   71.6669   -4.9443 O.3     1  UNL1       -0.3308
      7 O          15.4969   70.1213   -3.2373 O.3     1  UNL1       -0.3794
      8 O          15.8502   68.4715   -5.3795 O.3     1  UNL1       -0.3779
      9 C          16.8397   69.8024   -3.6018 C.3     1  UNL1        0.1713
     10 C          16.8997   69.3569   -5.0476 C.3     1  UNL1        0.1895
     11 C          17.6380   71.0990   -3.6344 C.3     1  UNL1        0.1764
     12 C          16.8049   70.6792   -5.7896 C.3     1  UNL1        0.2383
     13 H          15.5135   70.4379   -2.3180 H       1  UNL1        0.2105
     14 H          15.9178   67.7026   -4.7876 H       1  UNL1        0.2106
     15 O          15.5230   70.6000   -8.3048 O.2     1  UNL1       -0.2464
     16 O          19.5434   70.5732  -10.5574 O.2     1  UNL1       -0.2670
     17 N          17.4919   70.6514   -7.0492 N.ar    1  UNL1       -0.2551
     18 N          17.5259   70.5862   -9.4248 N.ar    1  UNL1       -0.2743
     19 C          16.7543   70.6115   -8.2556 C.ar    1  UNL1        0.3323
     20 C          18.8819   70.6637   -7.0810 C.ar    1  UNL1        0.0869
     21 C          19.6030   70.6397   -8.2041 C.ar    1  UNL1        0.0795
     22 C          18.9097   70.5966   -9.5068 C.ar    1  UNL1        0.2626
     23 H          17.0168   70.5567  -10.3041 H       1  UNL1        0.1734
     24 O          21.1805   71.4168   -0.3620 O.3     1  UNL1       -0.2703
     25 P          22.4140   71.4244    0.6826 P.3     1  UNL1        0.2208
     26 O          23.4546   72.4707    0.0203 O.3     1  UNL1       -0.4371
     27 O          22.9929   70.0670    0.9619 O.2     1  UNL1       -0.5170
     28 O          21.8421   72.1861    1.9851 O.3     1  UNL1       -0.2858
     29 O          20.9483   74.3620    2.2425 O.3     1  UNL1       -0.3226
     30 O          22.8739   73.7755    5.8795 O.3     1  UNL1       -0.3794
     31 O          24.1110   72.8956    3.3892 O.3     1  UNL1       -0.3775
     32 O          21.1699   75.6588    4.7935 O.3     1  UNL1       -0.3792
     33 C          22.1417   73.4493    4.7014 C.3     1  UNL1        0.1718
     34 C          22.9760   73.7528    3.4524 C.3     1  UNL1        0.1968
     35 C          20.8484   74.2687    4.6794 C.3     1  UNL1        0.1723
     36 C          22.1379   73.5682    2.1812 C.3     1  UNL1        0.2706
     37 C          20.1185   74.0400    3.3576 C.3     1  UNL1        0.1830
     38 H          22.3079   73.5701    6.6430 H       1  UNL1        0.2105
     39 H          24.6016   73.1177    2.5800 H       1  UNL1        0.2106
     40 H          21.5436   75.9599    3.9480 H       1  UNL1        0.2106
     41 O          19.2171   76.0542    2.5612 O.co2   1  UNL1       -0.5466
     42 O          17.8072   74.6577    3.6831 O.co2   1  UNL1       -0.5466
     43 C          18.9150   74.9199    3.2378 C.2     1  UNL1        0.0799
@<TRIPOS>UNITY_ATOM_ATTR
41 1
charge -1
@<TRIPOS>BOND
     1     1     4    1
     2     1    24    1
     3     1     2    1
     4     1     3    2
     5    25    28    1
     6    25    24    1
     7    25    26    1
     8    25    27    2
     9     6    11    1
    10     6    12    1
    11    29    36    1
    12    29    37    1
    13     7     9    1
    14     7    13    1
    15     8    10    1
    16     8    14    1
    17     4     5    1
    18    28    36    1
    19    30    33    1
    20    30    38    1
    21    31    34    1
    22    31    39    1
    23    32    35    1
    24    32    40    1
    25    41    43   ar
    26    15    19    2
    27    42    43   ar
    28    16    22    2
    29    17    12    1
    30    17    19   ar
    31    17    20   ar
    32    18    19   ar
    33    18    22   ar
    34    18    23    1
    35     9    10    1
    36     9    11    1
    37    10    12    1
    38    11     5    1
    39    33    34    1
    40    33    35    1
    41    34    36    1
    42    35    37    1
    43    37    43    1
    44    20    21   ar
    45    21    22   ar
@<TRIPOS>MOLECULE
UDP-glaA
 43 45 0 0 0
SMALL
GASTEIGER

@<TRIPOS>ATOM
      1 P          23.5022   71.9313   -3.1627 P.3     1  UNL1        0.2189
      2 O          24.2889   73.0723   -3.9973 O.3     1  UNL1       -0.4371
      3 O          24.1560   70.5805   -3.1662 O.2     1  UNL1       -0.5170
      4 O          21.9972   71.9853   -3.7520 O.3     1  UNL1       -0.3112
      5 C          21.2164   70.8025   -3.7257 C.3     1  UNL1        0.1811
      6 O          19.1675   71.7318   -4.5698 O.3     1  UNL1       -0.3308
      7 O          17.8279   70.4240   -2.2275 O.3     1  UNL1       -0.3794
      8 O          17.2584   68.7115   -4.2716 O.3     1  UNL1       -0.3779
      9 C          18.9239   69.9603   -3.0158 C.3     1  UNL1        0.1713
     10 C          18.4349   69.4874   -4.3685 C.3     1  UNL1        0.1895
     11 C          19.7772   71.1655   -3.3888 C.3     1  UNL1        0.1764
     12 C          18.2102   70.8000   -5.0996 C.3     1  UNL1        0.2383
     13 H          18.1930   70.7521   -1.3881 H       1  UNL1        0.2105
     14 H          17.4565   67.9495   -3.7004 H       1  UNL1        0.2106
     15 O          16.2162   69.9916   -6.9287 O.2     1  UNL1       -0.2464
     16 O          19.0899   70.3727  -10.5113 O.2     1  UNL1       -0.2670
     17 N          18.4096   70.6798   -6.5156 N.ar    1  UNL1       -0.2551
     18 N          17.6487   70.1814   -8.7114 N.ar    1  UNL1       -0.2743
     19 C          17.3428   70.2650   -7.3466 C.ar    1  UNL1        0.3323
     20 C          19.6519   70.9715   -7.0679 C.ar    1  UNL1        0.0869
     21 C          19.9276   70.8875   -8.3713 C.ar    1  UNL1        0.0795
     22 C          18.8687   70.4607   -9.3074 C.ar    1  UNL1        0.2626
     23 H          16.8969   69.8845   -9.3278 H       1  UNL1        0.1734
     24 O          23.3429   72.5985   -1.6982 O.3     1  UNL1       -0.2703
     25 P          23.0399   71.9326   -0.2569 P.3     1  UNL1        0.2208
     26 O          24.3510   71.0254    0.0157 O.3     1  UNL1       -0.4371
     27 O          21.7409   71.1821   -0.1860 O.2     1  UNL1       -0.5170
     28 O          23.1627   73.1532    0.7914 O.3     1  UNL1       -0.2858
     29 O          24.6419   74.4053    2.1493 O.3     1  UNL1       -0.3226
     30 O          22.0893   72.7211    4.9649 O.3     1  UNL1       -0.3794
     31 O          23.0279   71.1543    2.6911 O.3     1  UNL1       -0.3775
     32 O          24.1045   74.6103    4.9614 O.3     1  UNL1       -0.3792
     33 C          22.5031   73.2899    3.7257 C.3     1  UNL1        0.1718
     34 C          23.5742   72.4141    3.0669 C.3     1  UNL1        0.1968
     35 C          23.0602   74.6921    3.9859 C.3     1  UNL1        0.1723
     36 C          24.1483   73.1021    1.8221 C.3     1  UNL1        0.2706
     37 C          23.6392   75.2624    2.6930 C.3     1  UNL1        0.1830
     38 H          21.4147   73.3083    5.3465 H       1  UNL1        0.2105
     39 H          23.7379   70.6400    2.2712 H       1  UNL1        0.2106
     40 H          24.8899   74.2207    4.5412 H       1  UNL1        0.2106
     41 O          23.6080   77.3224    3.8151 O.co2   1  UNL1       -0.5466
     42 O          25.3522   76.9382    2.3983 O.co2   1  UNL1       -0.5466
     43 C          24.3108   76.5780    2.9277 C.2     1  UNL1        0.0799
@<TRIPOS>UNITY_ATOM_ATTR
41 1
charge -1
@<TRIPOS>BOND
     1     1     4    1
     2     1    24    1
     3     1     2    1
     4     1     3    2
     5    25    28    1
     6    25    24    1
     7    25    26    1
     8    25    27    2
     9     6    11    1
    10     6    12    1
    11    29    36    1
    12    29    37    1
    13     7     9    1
    14     7    13    1
    15     8    10    1
    16     8    14    1
    17     4     5    1
    18    28    36    1
    19    30    33    1
    20    30    38    1
    21    31    34    1
    22    31    39    1
    23    32    35    1
    24    32    40    1
    25    41    43   ar
    26    15    19    2
    27    42    43   ar
    28    16    22    2
    29    17    12    1
    30    17    19   ar
    31    17    20   ar
    32    18    19   ar
    33    18    22   ar
    34    18    23    1
    35     9    10    1
    36     9    11    1
    37    10    12    1
    38    11     5    1
    39    33    34    1
    40    33    35    1
    41    34    36    1
    42    35    37    1
    43    37    43    1
    44    20    21   ar
    45    21    22   ar
@<TRIPOS>MOLECULE
UDP-glaA
 43 45 0 0 0
SMALL
GASTEIGER

@<TRIPOS>ATOM
      1 P          23.4929   73.5977   -4.1928 P.3     1  UNL1        0.2189
      2 O          22.7545   75.0223   -4.3997 O.3     1  UNL1       -0.4371
      3 O          24.9859   73.6720   -4.0600 O.2     1  UNL1       -0.5170
      4 O          22.9400   72.6914   -5.4128 O.3     1  UNL1       -0.3112
      5 C          21.5899   72.2608   -5.3790 C.3     1  UNL1        0.1811
      6 O          20.4942   70.3326   -6.3041 O.3     1  UNL1       -0.3308
      7 O          20.6643   71.7366   -8.9482 O.3     1  UNL1       -0.3794
      8 O          18.0774   72.1759   -8.2061 O.3     1  UNL1       -0.3779
      9 C          20.4414   72.2827   -7.6483 C.3     1  UNL1        0.1713
     10 C          19.0328   71.9768   -7.1847 C.3     1  UNL1        0.1895
     11 C          21.2826   71.4911   -6.6557 C.3     1  UNL1        0.1764
     12 C          19.1469   70.5205   -6.7676 C.3     1  UNL1        0.2383
     13 H          21.5886   71.9229   -9.1862 H       1  UNL1        0.2105
     14 H          18.1434   73.1033   -8.4919 H       1  UNL1        0.2106
     15 O          16.4480   69.7873   -7.1593 O.2     1  UNL1       -0.2464
     16 O          15.7506   69.2367   -2.6373 O.2     1  UNL1       -0.2670
     17 N          18.2377   70.1800   -5.7108 N.ar    1  UNL1       -0.2551
     18 N          16.1024   69.5141   -4.9072 N.ar    1  UNL1       -0.2743
     19 C          16.9021   69.8268   -6.0144 C.ar    1  UNL1        0.3323
     20 C          18.6719   70.1983   -4.3900 C.ar    1  UNL1        0.0869
     21 C          17.8973   69.8972   -3.3455 C.ar    1  UNL1        0.0795
     22 C          16.4891   69.5186   -3.5760 C.ar    1  UNL1        0.2626
     23 H          15.1382   69.2578   -5.1015 H       1  UNL1        0.1734
     24 O          22.7323   72.9788   -2.9069 O.3     1  UNL1       -0.2703
     25 P          22.8526   71.5304   -2.1995 P.3     1  UNL1        0.2208
     26 O          24.1951   70.9086   -2.8531 O.3     1  UNL1       -0.4371
     27 O          21.6325   70.6677   -2.3509 O.2     1  UNL1       -0.5170
     28 O          23.2547   71.8541   -0.6706 O.3     1  UNL1       -0.2858
     29 O          24.5681   70.8399    1.0163 O.3     1  UNL1       -0.3226
     30 O          21.1766   71.9901    3.1267 O.3     1  UNL1       -0.3794
     31 O          20.9418   70.8488    0.4530 O.3     1  UNL1       -0.3775
     32 O          23.6700   70.9715    3.7393 O.3     1  UNL1       -0.3792
     33 C          22.2083   72.0479    2.1456 C.3     1  UNL1        0.1718
     34 C          22.1385   70.8256    1.2239 C.3     1  UNL1        0.1968
     35 C          23.5644   72.0922    2.8551 C.3     1  UNL1        0.1723
     36 C          23.3439   70.7903    0.2762 C.3     1  UNL1        0.2706
     37 C          24.6867   72.0109    1.8226 C.3     1  UNL1        0.1830
     38 H          21.2605   72.7799    3.6876 H       1  UNL1        0.2105
     39 H          20.9466   70.0636   -0.1199 H       1  UNL1        0.2106
     40 H          23.8138   70.1707    3.2071 H       1  UNL1        0.2106
     41 O          26.4033   73.1265    2.9683 O.co2   1  UNL1       -0.5466
     42 O          26.6981   70.9019    2.5669 O.co2   1  UNL1       -0.5466
     43 C          26.0279   71.9205    2.4783 C.2     1  UNL1        0.0799
@<TRIPOS>UNITY_ATOM_ATTR
41 1
charge -1
@<TRIPOS>BOND
     1     1     4    1
     2     1    24    1
     3     1     2    1
     4     1     3    2
     5    25    28    1
     6    25    24    1
     7    25    26    1
     8    25    27    2
     9     6    11    1
    10     6    12    1
    11    29    36    1
    12    29    37    1
    13     7     9    1
    14     7    13    1
    15     8    10    1
    16     8    14    1
    17     4     5    1
    18    28    36    1
    19    30    33    1
    20    30    38    1
    21    31    34    1
    22    31    39    1
    23    32    35    1
    24    32    40    1
    25    41    43   ar
    26    15    19    2
    27    42    43   ar
    28    16    22    2
    29    17    12    1
    30    17    19   ar
    31    17    20   ar
    32    18    19   ar
    33    18    22   ar
    34    18    23    1
    35     9    10    1
    36     9    11    1
    37    10    12    1
    38    11     5    1
    39    33    34    1
    40    33    35    1
    41    34    36    1
    42    35    37    1
    43    37    43    1
    44    20    21   ar
    45    21    22   ar
@<TRIPOS>MOLECULE
UDP-glaA
 43 45 0 0 0
SMALL
GASTEIGER

@<TRIPOS>ATOM
      1 P          23.6923   72.4615   -3.6390 P.3     1  UNL1        0.2189
      2 O          24.8478   73.5879   -3.7542 O.3     1  UNL1       -0.4371
      3 O          24.1728   71.1021   -3.2224 O.2     1  UNL1       -0.5170
      4 O          22.9352   72.5324   -5.0663 O.3     1  UNL1       -0.3112
      5 C          21.5547   72.2148   -5.1174 C.3     1  UNL1        0.1811
      6 O          20.4376   70.3520   -6.1451 O.3     1  UNL1       -0.3308
      7 O          20.6891   71.8634   -8.7226 O.3     1  UNL1       -0.3794
      8 O          18.0977   72.3265   -8.0111 O.3     1  UNL1       -0.3779
      9 C          20.4519   72.3583   -7.4048 C.3     1  UNL1        0.1713
     10 C          19.0284   72.0635   -6.9815 C.3     1  UNL1        0.1895
     11 C          21.2567   71.5071   -6.4315 C.3     1  UNL1        0.1764
     12 C          19.1040   70.5885   -6.6254 C.3     1  UNL1        0.2383
     13 H          21.6216   72.0397   -8.9349 H       1  UNL1        0.2105
     14 H          18.1887   73.2636   -8.2555 H       1  UNL1        0.2106
     15 O          16.4248   69.8376   -7.1086 O.2     1  UNL1       -0.2464
     16 O          15.5993   69.2084   -2.6185 O.2     1  UNL1       -0.2670
     17 N          18.1671   70.2230   -5.6016 N.ar    1  UNL1       -0.2551
     18 N          16.0154   69.5253   -4.8723 N.ar    1  UNL1       -0.2743
     19 C          16.8445   69.8628   -5.9502 C.ar    1  UNL1        0.3323
     20 C          18.5619   70.2241   -4.2683 C.ar    1  UNL1        0.0869
     21 C          17.7597   69.8993   -3.2521 C.ar    1  UNL1        0.0795
     22 C          16.3625   69.5119   -3.5303 C.ar    1  UNL1        0.2626
     23 H          15.0598   69.2635   -5.0992 H       1  UNL1        0.1734
     24 O          22.6263   73.1379   -2.6285 O.3     1  UNL1       -0.2703
     25 P          22.3925   74.6821   -2.2121 P.3     1  UNL1        0.2208
     26 O          20.9874   75.0497   -2.9239 O.3     1  UNL1       -0.4371
     27 O          23.5283   75.5962   -2.5732 O.2     1  UNL1       -0.5170
     28 O          22.0513   74.6335   -0.6357 O.3     1  UNL1       -0.2858
     29 O          21.3216   72.4934    0.0622 O.3     1  UNL1       -0.3226
     30 O          20.7005   74.7815    3.4765 O.3     1  UNL1       -0.3794
     31 O          20.0603   75.8507    0.8397 O.3     1  UNL1       -0.3775
     32 O          20.6079   72.1014    2.8145 O.3     1  UNL1       -0.3792
     33 C          21.3210   74.3443    2.2707 C.3     1  UNL1        0.1718
     34 C          20.3521   74.4802    1.0913 C.3     1  UNL1        0.1968
     35 C          21.7456   72.8823    2.4341 C.3     1  UNL1        0.1723
     36 C          20.9477   73.8544   -0.1760 C.3     1  UNL1        0.2706
     37 C          22.2834   72.3526    1.1066 C.3     1  UNL1        0.1830
     38 H          21.3477   74.6756    4.1946 H       1  UNL1        0.2105
     39 H          19.4531   75.8871    0.0816 H       1  UNL1        0.2106
     40 H          20.0318   71.9965    2.0385 H       1  UNL1        0.2106
     41 O          21.4659   70.1561    1.0034 O.co2   1  UNL1       -0.5466
     42 O          23.6990   70.4160    1.3808 O.co2   1  UNL1       -0.5466
     43 C          22.5898   70.8907    1.1844 C.2     1  UNL1        0.0799
@<TRIPOS>UNITY_ATOM_ATTR
41 1
charge -1
@<TRIPOS>BOND
     1     1     4    1
     2     1    24    1
     3     1     2    1
     4     1     3    2
     5    25    28    1
     6    25    24    1
     7    25    26    1
     8    25    27    2
     9     6    11    1
    10     6    12    1
    11    29    36    1
    12    29    37    1
    13     7     9    1
    14     7    13    1
    15     8    10    1
    16     8    14    1
    17     4     5    1
    18    28    36    1
    19    30    33    1
    20    30    38    1
    21    31    34    1
    22    31    39    1
    23    32    35    1
    24    32    40    1
    25    41    43   ar
    26    15    19    2
    27    42    43   ar
    28    16    22    2
    29    17    12    1
    30    17    19   ar
    31    17    20   ar
    32    18    19   ar
    33    18    22   ar
    34    18    23    1
    35     9    10    1
    36     9    11    1
    37    10    12    1
    38    11     5    1
    39    33    34    1
    40    33    35    1
    41    34    36    1
    42    35    37    1
    43    37    43    1
    44    20    21   ar
    45    21    22   ar
@<TRIPOS>MOLECULE
UDP-glaA
 43 45 0 0 0
SMALL
GASTEIGER

@<TRIPOS>ATOM
      1 P          21.5994   72.6092   -4.8341 P.3     1  UNL1        0.2189
      2 O          21.4714   74.2161   -4.6969 O.3     1  UNL1       -0.4371
      3 O          22.5064   72.1380   -5.9329 O.2     1  UNL1       -0.5170
      4 O          20.0662   72.1022   -4.9222 O.3     1  UNL1       -0.3112
      5 C          19.5191   71.4036   -3.8168 C.3     1  UNL1        0.1811
      6 O          17.6377   71.8212   -5.2521 O.3     1  UNL1       -0.3308
      7 O          16.0011   70.3321   -3.2284 O.3     1  UNL1       -0.3794
      8 O          16.3820   68.4636   -5.1776 O.3     1  UNL1       -0.3779
      9 C          17.3431   70.0968   -3.6546 C.3     1  UNL1        0.1713
     10 C          17.3544   69.4786   -5.0367 C.3     1  UNL1        0.1895
     11 C          18.0002   71.4479   -3.9044 C.3     1  UNL1        0.1764
     12 C          17.0762   70.6809   -5.9227 C.3     1  UNL1        0.2383
     13 H          16.0449   70.7633   -2.3579 H       1  UNL1        0.2105
     14 H          16.5666   67.7860   -4.5046 H       1  UNL1        0.2106
     15 O          15.6489   70.7457   -8.3587 O.2     1  UNL1       -0.2464
     16 O          19.4948   70.1961  -10.8378 O.2     1  UNL1       -0.2670
     17 N          17.6790   70.5577   -7.2191 N.ar    1  UNL1       -0.2551
     18 N          17.5649   70.4715   -9.5916 N.ar    1  UNL1       -0.2743
     19 C          16.8727   70.6023   -8.3804 C.ar    1  UNL1        0.3323
     20 C          19.0554   70.3945   -7.3309 C.ar    1  UNL1        0.0869
     21 C          19.7005   70.2717   -8.4930 C.ar    1  UNL1        0.0795
     22 C          18.9318   70.3069   -9.7530 C.ar    1  UNL1        0.2626
     23 H          17.0053   70.5000  -10.4396 H       1  UNL1        0.1734
     24 O          22.0478   72.1533   -3.3487 O.3     1  UNL1       -0.2703
     25 P          23.5138   71.9718   -2.6926 P.3     1  UNL1        0.2208
     26 O          24.3004   73.3028   -3.1677 O.3     1  UNL1       -0.4371
     27 O          24.1967   70.6847   -3.0571 O.2     1  UNL1       -0.5170
     28 O          23.2815   72.1780   -1.1091 O.3     1  UNL1       -0.2858
     29 O          24.5465   71.1811    0.6245 O.3     1  UNL1       -0.3226
     30 O          20.8848   71.8315    2.4815 O.3     1  UNL1       -0.3794
     31 O          21.0009   70.8682   -0.2688 O.3     1  UNL1       -0.3775
     32 O          23.4109   71.0257    3.2560 O.3     1  UNL1       -0.3792
     33 C          21.9844   72.0627    1.6053 C.3     1  UNL1        0.1718
     34 C          22.1233   70.9092    0.6061 C.3     1  UNL1        0.1968
     35 C          23.2628   72.1910    2.4382 C.3     1  UNL1        0.1723
     36 C          23.4019   71.0630   -0.2268 C.3     1  UNL1        0.2706
     37 C          24.4712   72.2970    1.5105 C.3     1  UNL1        0.1830
     38 H          20.8366   72.5832    3.0964 H       1  UNL1        0.2105
     39 H          21.1376   70.1308   -0.8871 H       1  UNL1        0.2106
     40 H          23.6835   70.2837    2.6900 H       1  UNL1        0.2106
     41 O          26.2496   71.0370    2.3785 O.co2   1  UNL1       -0.5466
     42 O          26.2892   73.2850    2.7548 O.co2   1  UNL1       -0.5466
     43 C          25.7538   72.2940    2.2799 C.2     1  UNL1        0.0799
@<TRIPOS>UNITY_ATOM_ATTR
41 1
charge -1
@<TRIPOS>BOND
     1     1     4    1
     2     1    24    1
     3     1     2    1
     4     1     3    2
     5    25    28    1
     6    25    24    1
     7    25    26    1
     8    25    27    2
     9     6    11    1
    10     6    12    1
    11    29    36    1
    12    29    37    1
    13     7     9    1
    14     7    13    1
    15     8    10    1
    16     8    14    1
    17     4     5    1
    18    28    36    1
    19    30    33    1
    20    30    38    1
    21    31    34    1
    22    31    39    1
    23    32    35    1
    24    32    40    1
    25    41    43   ar
    26    15    19    2
    27    42    43   ar
    28    16    22    2
    29    17    12    1
    30    17    19   ar
    31    17    20   ar
    32    18    19   ar
    33    18    22   ar
    34    18    23    1
    35     9    10    1
    36     9    11    1
    37    10    12    1
    38    11     5    1
    39    33    34    1
    40    33    35    1
    41    34    36    1
    42    35    37    1
    43    37    43    1
    44    20    21   ar
    45    21    22   ar
@<TRIPOS>MOLECULE
UDP-glaA
 43 45 0 0 0
SMALL
GASTEIGER

@<TRIPOS>ATOM
      1 P          21.8480   72.5519   -5.7483 P.3     1  UNL1        0.2189
      2 O          21.2809   74.0341   -5.4340 O.3     1  UNL1       -0.4371
      3 O          23.0107   72.5068   -6.6961 O.2     1  UNL1       -0.5170
      4 O          20.5370   71.7216   -6.2041 O.3     1  UNL1       -0.3112
      5 C          19.9156   72.0578   -7.4330 C.3     1  UNL1        0.1811
      6 O          18.7447   70.0106   -6.9721 O.3     1  UNL1       -0.3308
      7 O          18.0326   69.9809   -9.8848 O.3     1  UNL1       -0.3794
      8 O          15.7487   70.9134   -8.7229 O.3     1  UNL1       -0.3779
      9 C          18.1579   71.0916   -8.9969 C.3     1  UNL1        0.1713
     10 C          16.9721   71.1489   -8.0570 C.3     1  UNL1        0.1895
     11 C          19.3081   70.8019   -8.0415 C.3     1  UNL1        0.1764
     12 C          17.3107   70.0587   -7.0547 C.3     1  UNL1        0.2383
     13 H          18.8310   69.9619  -10.4396 H       1  UNL1        0.2105
     14 H          15.6595   71.5876   -9.4183 H       1  UNL1        0.2106
     15 O          16.4650   68.0713   -5.2352 O.2     1  UNL1       -0.2464
     16 O          15.2750   71.2099   -2.0774 O.2     1  UNL1       -0.2670
     17 N          16.7765   70.3281   -5.7503 N.ar    1  UNL1       -0.2551
     18 N          15.8725   69.6356   -3.6642 N.ar    1  UNL1       -0.2743
     19 C          16.3803   69.2581   -4.9143 C.ar    1  UNL1        0.3323
     20 C          16.6494   71.6412   -5.3110 C.ar    1  UNL1        0.0869
     21 C          16.1638   71.9847   -4.1160 C.ar    1  UNL1        0.0795
     22 C          15.7265   70.9274   -3.1830 C.ar    1  UNL1        0.2626
     23 H          15.5807   68.8828   -3.0466 H       1  UNL1        0.1734
     24 O          22.1571   71.9622   -4.2746 O.3     1  UNL1       -0.2703
     25 P          23.3659   72.2625   -3.2445 P.3     1  UNL1        0.2208
     26 O          24.5726   72.7303   -4.2147 O.3     1  UNL1       -0.4371
     27 O          23.7067   71.1112   -2.3422 O.2     1  UNL1       -0.5170
     28 O          22.9195   73.6064   -2.4709 O.3     1  UNL1       -0.2858
     29 O          20.8129   72.7626   -1.8002 O.3     1  UNL1       -0.3226
     30 O          23.3926   70.8799    0.8606 O.3     1  UNL1       -0.3794
     31 O          23.7823   73.6817    0.1507 O.3     1  UNL1       -0.3775
     32 O          20.7163   70.7060    0.1997 O.3     1  UNL1       -0.3792
     33 C          22.9419   71.4593   -0.3606 C.3     1  UNL1        0.1718
     34 C          22.6063   72.9407   -0.1574 C.3     1  UNL1        0.1968
     35 C          21.7004   70.7019   -0.8396 C.3     1  UNL1        0.1723
     36 C          21.9598   73.5290   -1.4177 C.3     1  UNL1        0.2706
     37 C          21.1190   71.3954   -2.0697 C.3     1  UNL1        0.1830
     38 H          23.5905   69.9440    0.6858 H       1  UNL1        0.2105
     39 H          23.5225   74.6119    0.2608 H       1  UNL1        0.2106
     40 H          20.3281   71.5957    0.2540 H       1  UNL1        0.2106
     41 O          18.7989   71.2414   -1.7577 O.co2   1  UNL1       -0.5466
     42 O          19.7161   69.9372   -3.3870 O.co2   1  UNL1       -0.5466
     43 C          19.8309   70.7655   -2.4953 C.2     1  UNL1        0.0799
@<TRIPOS>UNITY_ATOM_ATTR
41 1
charge -1
@<TRIPOS>BOND
     1     1     4    1
     2     1    24    1
     3     1     2    1
     4     1     3    2
     5    25    28    1
     6    25    24    1
     7    25    26    1
     8    25    27    2
     9     6    11    1
    10     6    12    1
    11    29    36    1
    12    29    37    1
    13     7     9    1
    14     7    13    1
    15     8    10    1
    16     8    14    1
    17     4     5    1
    18    28    36    1
    19    30    33    1
    20    30    38    1
    21    31    34    1
    22    31    39    1
    23    32    35    1
    24    32    40    1
    25    41    43   ar
    26    15    19    2
    27    42    43   ar
    28    16    22    2
    29    17    12    1
    30    17    19   ar
    31    17    20   ar
    32    18    19   ar
    33    18    22   ar
    34    18    23    1
    35     9    10    1
    36     9    11    1
    37    10    12    1
    38    11     5    1
    39    33    34    1
    40    33    35    1
    41    34    36    1
    42    35    37    1
    43    37    43    1
    44    20    21   ar
    45    21    22   ar
@<TRIPOS>MOLECULE
UDP-glaA
 43 45 0 0 0
SMALL
GASTEIGER

@<TRIPOS>ATOM
      1 P          23.6508   72.5187   -3.5007 P.3     1  UNL1        0.2189
      2 O          24.1416   71.0276   -3.1094 O.3     1  UNL1       -0.4371
      3 O          24.7098   73.3965   -4.1008 O.2     1  UNL1       -0.5170
      4 O          22.9649   73.0717   -2.1446 O.3     1  UNL1       -0.3112
      5 C          21.9938   74.0992   -2.2469 C.3     1  UNL1        0.1811
      6 O          21.1559   72.5800   -0.5843 O.3     1  UNL1       -0.3308
      7 O          19.1422   74.7028    0.0714 O.3     1  UNL1       -0.3794
      8 O          20.9885   75.0000    2.0560 O.3     1  UNL1       -0.3779
      9 C          20.5072   74.8433   -0.3219 C.3     1  UNL1        0.1713
     10 C          21.4248   74.4677    0.8224 C.3     1  UNL1        0.1895
     11 C          20.8148   73.7590   -1.3463 C.3     1  UNL1        0.1764
     12 C          21.3672   72.9500    0.7882 C.3     1  UNL1        0.2383
     13 H          18.5940   74.9157   -0.7030 H       1  UNL1        0.2105
     14 H          20.9493   75.9672    1.9599 H       1  UNL1        0.2106
     15 O          21.7132   70.1773    1.1980 O.2     1  UNL1       -0.2464
     16 O          26.0740   70.7402    2.5785 O.2     1  UNL1       -0.2670
     17 N          22.5822   72.3446    1.2535 N.ar    1  UNL1       -0.2551
     18 N          23.8843   70.4595    1.8857 N.ar    1  UNL1       -0.2743
     19 C          22.6517   70.9425    1.4269 C.ar    1  UNL1        0.3323
     20 C          23.6892   73.1383    1.5332 C.ar    1  UNL1        0.0869
     21 C          24.8576   72.6625    1.9695 C.ar    1  UNL1        0.0795
     22 C          25.0132   71.2092    2.1777 C.ar    1  UNL1        0.2626
     23 H          23.9571   69.4544    2.0182 H       1  UNL1        0.1734
     24 O          22.3810   72.2414   -4.4630 O.3     1  UNL1       -0.2703
     25 P          21.9074   72.9652   -5.8284 P.3     1  UNL1        0.2208
     26 O          22.8123   72.2487   -6.9614 O.3     1  UNL1       -0.4371
     27 O          22.0180   74.4628   -5.8020 O.2     1  UNL1       -0.5170
     28 O          20.4140   72.4115   -6.0879 O.3     1  UNL1       -0.2858
     29 O          19.4432   70.3330   -5.5074 O.3     1  UNL1       -0.3226
     30 O          17.4687   71.2585   -9.0463 O.3     1  UNL1       -0.3794
     31 O          20.3281   71.7616   -8.7699 O.3     1  UNL1       -0.3775
     32 O          17.2422   69.3480   -7.0642 O.3     1  UNL1       -0.3792
     33 C          18.1192   71.4759   -7.7974 C.3     1  UNL1        0.1718
     34 C          19.5676   70.9789   -7.8555 C.3     1  UNL1        0.1968
     35 C          17.3525   70.7286   -6.7029 C.3     1  UNL1        0.1723
     36 C          20.2224   71.0502   -6.4704 C.3     1  UNL1        0.2706
     37 C          18.1123   70.8317   -5.3822 C.3     1  UNL1        0.1830
     38 H          16.5565   71.5849   -8.9627 H       1  UNL1        0.2105
     39 H          21.2370   71.4170   -8.7656 H       1  UNL1        0.2106
     40 H          18.1100   68.9267   -6.9431 H       1  UNL1        0.2106
     41 O          17.8895   70.3987   -3.0873 O.co2   1  UNL1       -0.5466
     42 O          16.6653   69.1062   -4.5113 O.co2   1  UNL1       -0.5466
     43 C          17.4670   70.0077   -4.3138 C.2     1  UNL1        0.0799
@<TRIPOS>UNITY_ATOM_ATTR
41 1
charge -1
@<TRIPOS>BOND
     1     1     4    1
     2     1    24    1
     3     1     2    1
     4     1     3    2
     5    25    28    1
     6    25    24    1
     7    25    26    1
     8    25    27    2
     9     6    11    1
    10     6    12    1
    11    29    36    1
    12    29    37    1
    13     7     9    1
    14     7    13    1
    15     8    10    1
    16     8    14    1
    17     4     5    1
    18    28    36    1
    19    30    33    1
    20    30    38    1
    21    31    34    1
    22    31    39    1
    23    32    35    1
    24    32    40    1
    25    41    43   ar
    26    15    19    2
    27    42    43   ar
    28    16    22    2
    29    17    12    1
    30    17    19   ar
    31    17    20   ar
    32    18    19   ar
    33    18    22   ar
    34    18    23    1
    35     9    10    1
    36     9    11    1
    37    10    12    1
    38    11     5    1
    39    33    34    1
    40    33    35    1
    41    34    36    1
    42    35    37    1
    43    37    43    1
    44    20    21   ar
    45    21    22   ar
@<TRIPOS>MOLECULE
UDP-glaA
 43 45 0 0 0
SMALL
GASTEIGER

@<TRIPOS>ATOM
      1 P          23.4920   72.3550   -3.4658 P.3     1  UNL1        0.2189
      2 O          24.0585   70.8546   -3.2529 O.3     1  UNL1       -0.4371
      3 O          24.5081   73.3545   -3.9356 O.2     1  UNL1       -0.5170
      4 O          22.7636   72.6993   -2.0635 O.3     1  UNL1       -0.3112
      5 C          23.5399   72.6929   -0.8775 C.3     1  UNL1        0.1811
      6 O          24.5252   71.0281    0.5479 O.3     1  UNL1       -0.3308
      7 O          21.7201   70.1767    1.1786 O.3     1  UNL1       -0.3794
      8 O          22.3959   71.6644    3.3616 O.3     1  UNL1       -0.3779
      9 C          22.2347   71.4870    0.9423 C.3     1  UNL1        0.1713
     10 C          23.0353   71.9602    2.1372 C.3     1  UNL1        0.1895
     11 C          23.3041   71.3840   -0.1372 C.3     1  UNL1        0.1764
     12 C          24.3408   71.2033    1.9623 C.3     1  UNL1        0.2383
     13 H          21.2493   69.9007    0.3737 H       1  UNL1        0.2105
     14 H          21.5243   72.0961    3.3485 H       1  UNL1        0.2106
     15 O          24.2679   73.9030    2.7880 O.2     1  UNL1       -0.2464
     16 O          28.7170   73.8467    3.9881 O.2     1  UNL1       -0.2670
     17 N          25.4650   71.9190    2.4948 N.ar    1  UNL1       -0.2551
     18 N          26.4836   73.8733    3.3846 N.ar    1  UNL1       -0.2743
     19 C          25.3230   73.2729    2.8790 C.ar    1  UNL1        0.3323
     20 C          26.6921   71.2795    2.6318 C.ar    1  UNL1        0.0869
     21 C          27.7892   71.8656    3.1160 C.ar    1  UNL1        0.0795
     22 C          27.7262   73.2786    3.5394 C.ar    1  UNL1        0.2626
     23 H          26.4051   74.8467    3.6666 H       1  UNL1        0.1734
     24 O          22.2487   72.1330   -4.4758 O.3     1  UNL1       -0.2703
     25 P          20.8377   71.3719   -4.2693 P.3     1  UNL1        0.2208
     26 O          20.0901   72.2728   -3.1532 O.3     1  UNL1       -0.4371
     27 O          20.9681   69.9199   -3.9084 O.2     1  UNL1       -0.5170
     28 O          20.0202   71.6492   -5.6326 O.3     1  UNL1       -0.2858
     29 O          18.3045   70.0305   -5.4430 O.3     1  UNL1       -0.3226
     30 O          16.9672   72.3486   -8.6237 O.3     1  UNL1       -0.3794
     31 O          19.7882   71.6486   -8.3838 O.3     1  UNL1       -0.3775
     32 O          15.9519   70.3076   -7.0638 O.3     1  UNL1       -0.3792
     33 C          17.6056   72.0382   -7.3883 C.3     1  UNL1        0.1718
     34 C          18.7527   71.0474   -7.6136 C.3     1  UNL1        0.1968
     35 C          16.5713   71.4341   -6.4344 C.3     1  UNL1        0.1723
     36 C          19.3339   70.5756   -6.2750 C.3     1  UNL1        0.2706
     37 C          17.2641   70.9640   -5.1572 C.3     1  UNL1        0.1830
     38 H          16.2483   72.9751   -8.4331 H       1  UNL1        0.2105
     39 H          20.4940   70.9890   -8.4920 H       1  UNL1        0.2106
     40 H          16.5861   69.5707   -7.0714 H       1  UNL1        0.2106
     41 O          15.7182   71.1203   -3.3995 O.co2   1  UNL1       -0.5466
     42 O          16.0949   69.0471   -4.2694 O.co2   1  UNL1       -0.5466
     43 C          16.3133   70.2498   -4.2501 C.2     1  UNL1        0.0799
@<TRIPOS>UNITY_ATOM_ATTR
41 1
charge -1
@<TRIPOS>BOND
     1     1     4    1
     2     1    24    1
     3     1     2    1
     4     1     3    2
     5    25    28    1
     6    25    24    1
     7    25    26    1
     8    25    27    2
     9     6    11    1
    10     6    12    1
    11    29    36    1
    12    29    37    1
    13     7     9    1
    14     7    13    1
    15     8    10    1
    16     8    14    1
    17     4     5    1
    18    28    36    1
    19    30    33    1
    20    30    38    1
    21    31    34    1
    22    31    39    1
    23    32    35    1
    24    32    40    1
    25    41    43   ar
    26    15    19    2
    27    42    43   ar
    28    16    22    2
    29    17    12    1
    30    17    19   ar
    31    17    20   ar
    32    18    19   ar
    33    18    22   ar
    34    18    23    1
    35     9    10    1
    36     9    11    1
    37    10    12    1
    38    11     5    1
    39    33    34    1
    40    33    35    1
    41    34    36    1
    42    35    37    1
    43    37    43    1
    44    20    21   ar
    45    21    22   ar
@<TRIPOS>MOLECULE
UDP-glaA
 43 45 0 0 0
SMALL
GASTEIGER

@<TRIPOS>ATOM
      1 P          21.6352   72.8670   -5.9432 P.3     1  UNL1        0.2189
      2 O          21.6511   74.0570   -7.0391 O.3     1  UNL1       -0.4371
      3 O          22.9806   72.2859   -5.6203 O.2     1  UNL1       -0.5170
      4 O          20.5384   71.8251   -6.5150 O.3     1  UNL1       -0.3112
      5 C          19.9423   72.0916   -7.7732 C.3     1  UNL1        0.1811
      6 O          18.8690   70.0131   -7.2236 O.3     1  UNL1       -0.3308
      7 O          18.0517   69.8884  -10.1060 O.3     1  UNL1       -0.3794
      8 O          15.7779   70.7609   -8.8795 O.3     1  UNL1       -0.3779
      9 C          18.1666   71.0235   -9.2480 C.3     1  UNL1        0.1713
     10 C          17.0151   71.0579   -8.2656 C.3     1  UNL1        0.1895
     11 C          19.3616   70.7998   -8.3307 C.3     1  UNL1        0.1764
     12 C          17.4323   70.0050   -7.2530 C.3     1  UNL1        0.2383
     13 H          18.8293   69.8866  -10.6899 H       1  UNL1        0.2105
     14 H          15.6371   71.4148   -9.5857 H       1  UNL1        0.2106
     15 O          16.3929   68.0565   -5.4927 O.2     1  UNL1       -0.2464
     16 O          15.5562   71.1936   -2.2221 O.2     1  UNL1       -0.2670
     17 N          16.9365   70.2844   -5.9356 N.ar    1  UNL1       -0.2551
     18 N          15.9765   69.6200   -3.8654 N.ar    1  UNL1       -0.2743
     19 C          16.4349   69.2341   -5.1320 C.ar    1  UNL1        0.3323
     20 C          16.9502   71.5880   -5.4520 C.ar    1  UNL1        0.0869
     21 C          16.5100   71.9398   -4.2419 C.ar    1  UNL1        0.0795
     22 C          15.9694   70.9030   -3.3405 C.ar    1  UNL1        0.2626
     23 H          15.6108   68.8814   -3.2705 H       1  UNL1        0.1734
     24 O          20.8739   73.5421   -4.6863 O.3     1  UNL1       -0.2703
     25 P          20.4199   72.9223   -3.2642 P.3     1  UNL1        0.2208
     26 O          20.3570   71.3326   -3.5554 O.3     1  UNL1       -0.4371
     27 O          19.1476   73.5033   -2.7171 O.2     1  UNL1       -0.5170
     28 O          21.7050   73.1116   -2.3067 O.3     1  UNL1       -0.2858
     29 O          21.6305   72.4339   -0.0407 O.3     1  UNL1       -0.3226
     30 O          24.8648   75.0450   -0.0630 O.3     1  UNL1       -0.3794
     31 O          22.4479   75.6672   -1.5721 O.3     1  UNL1       -0.3775
     32 O          23.7300   73.2737    1.7272 O.3     1  UNL1       -0.3792
     33 C          23.9549   74.0604   -0.5456 C.3     1  UNL1        0.1718
     34 C          22.5329   74.6287   -0.6019 C.3     1  UNL1        0.1968
     35 C          23.9976   72.8470    0.3873 C.3     1  UNL1        0.1723
     36 C          21.5224   73.5302   -0.9548 C.3     1  UNL1        0.2706
     37 C          22.9279   71.8404   -0.0307 C.3     1  UNL1        0.1830
     38 H          25.7494   74.6417   -0.0418 H       1  UNL1        0.2105
     39 H          21.5305   75.9884   -1.5784 H       1  UNL1        0.2106
     40 H          22.7826   73.4782    1.8028 H       1  UNL1        0.2106
     41 O          21.5674   70.2678    1.0554 O.co2   1  UNL1       -0.5466
     42 O          23.7977   70.2109    1.5243 O.co2   1  UNL1       -0.5466
     43 C          22.8462   70.6978    0.9309 C.2     1  UNL1        0.0799
@<TRIPOS>UNITY_ATOM_ATTR
41 1
charge -1
@<TRIPOS>BOND
     1     1     4    1
     2     1    24    1
     3     1     2    1
     4     1     3    2
     5    25    28    1
     6    25    24    1
     7    25    26    1
     8    25    27    2
     9     6    11    1
    10     6    12    1
    11    29    36    1
    12    29    37    1
    13     7     9    1
    14     7    13    1
    15     8    10    1
    16     8    14    1
    17     4     5    1
    18    28    36    1
    19    30    33    1
    20    30    38    1
    21    31    34    1
    22    31    39    1
    23    32    35    1
    24    32    40    1
    25    41    43   ar
    26    15    19    2
    27    42    43   ar
    28    16    22    2
    29    17    12    1
    30    17    19   ar
    31    17    20   ar
    32    18    19   ar
    33    18    22   ar
    34    18    23    1
    35     9    10    1
    36     9    11    1
    37    10    12    1
    38    11     5    1
    39    33    34    1
    40    33    35    1
    41    34    36    1
    42    35    37    1
    43    37    43    1
    44    20    21   ar
    45    21    22   ar
@<TRIPOS>MOLECULE
UDP-glaA
 43 45 0 0 0
SMALL
GASTEIGER

@<TRIPOS>ATOM
      1 P          21.3798   71.4470   -1.6958 P.3     1  UNL1        0.2189
      2 O          20.8148   70.5700   -0.4592 O.3     1  UNL1       -0.4371
      3 O          21.9976   70.6497   -2.8070 O.2     1  UNL1       -0.5170
      4 O          22.3452   72.5368   -0.9916 O.3     1  UNL1       -0.3112
      5 C          23.2372   72.0988    0.0192 C.3     1  UNL1        0.1811
      6 O          23.5350   71.9112    2.3963 O.3     1  UNL1       -0.3308
      7 O          21.4048   74.0074    2.6403 O.3     1  UNL1       -0.3794
      8 O          23.6951   75.4395    3.0137 O.3     1  UNL1       -0.3779
      9 C          22.4288   73.8707    1.6551 C.3     1  UNL1        0.1713
     10 C          23.7712   74.2634    2.2349 C.3     1  UNL1        0.1895
     11 C          22.6220   72.3849    1.3817 C.3     1  UNL1        0.1764
     12 C          24.1293   73.0389    3.0598 C.3     1  UNL1        0.2383
     13 H          20.5723   73.7084    2.2364 H       1  UNL1        0.2105
     14 H          23.3559   76.1485    2.4407 H       1  UNL1        0.2106
     15 O          25.4559   70.6826    2.2456 O.2     1  UNL1       -0.2464
     16 O          29.5727   72.3641    3.4555 O.2     1  UNL1       -0.2670
     17 N          25.5467   72.8341    3.1501 N.ar    1  UNL1       -0.2551
     18 N          27.5050   71.5212    2.8491 N.ar    1  UNL1       -0.2743
     19 C          26.1134   71.6135    2.7144 C.ar    1  UNL1        0.3323
     20 C          26.3604   73.8365    3.6663 C.ar    1  UNL1        0.0869
     21 C          27.6858   73.7335    3.7877 C.ar    1  UNL1        0.0795
     22 C          28.3560   72.4907    3.3566 C.ar    1  UNL1        0.2626
     23 H          27.9341   70.6523    2.5428 H       1  UNL1        0.1734
     24 O          20.0956   72.3276   -2.1320 O.3     1  UNL1       -0.2703
     25 P          18.7234   71.9056   -2.8748 P.3     1  UNL1        0.2208
     26 O          17.7608   73.1820   -2.6292 O.3     1  UNL1       -0.4371
     27 O          18.1491   70.5976   -2.4111 O.2     1  UNL1       -0.5170
     28 O          19.0774   71.9579   -4.4483 O.3     1  UNL1       -0.2858
     29 O          18.3150   70.1113   -5.7164 O.3     1  UNL1       -0.3226
     30 O          20.8489   72.0239   -8.3998 O.3     1  UNL1       -0.3794
     31 O          21.5849   71.7723   -5.5889 O.3     1  UNL1       -0.3775
     32 O          19.0370   69.9409   -8.4892 O.3     1  UNL1       -0.3792
     33 C          19.9051   71.8813   -7.3419 C.3     1  UNL1        0.1718
     34 C          20.5081   71.0644   -6.1941 C.3     1  UNL1        0.1968
     35 C          18.6561   71.1807   -7.8837 C.3     1  UNL1        0.1723
     36 C          19.4478   70.7595   -5.1287 C.3     1  UNL1        0.2706
     37 C          17.6915   70.8910   -6.7357 C.3     1  UNL1        0.1830
     38 H          20.4246   72.5439   -9.1034 H       1  UNL1        0.2105
     39 H          21.9274   71.2221   -4.8645 H       1  UNL1        0.2106
     40 H          19.2605   69.3090   -7.7850 H       1  UNL1        0.2106
     41 O          16.0853   70.5280   -8.4068 O.co2   1  UNL1       -0.5466
     42 O          16.0069   69.1684   -6.5785 O.co2   1  UNL1       -0.5466
     43 C          16.5149   70.0917   -7.1981 C.2     1  UNL1        0.0799
@<TRIPOS>UNITY_ATOM_ATTR
41 1
charge -1
@<TRIPOS>BOND
     1     1     4    1
     2     1    24    1
     3     1     2    1
     4     1     3    2
     5    25    28    1
     6    25    24    1
     7    25    26    1
     8    25    27    2
     9     6    11    1
    10     6    12    1
    11    29    36    1
    12    29    37    1
    13     7     9    1
    14     7    13    1
    15     8    10    1
    16     8    14    1
    17     4     5    1
    18    28    36    1
    19    30    33    1
    20    30    38    1
    21    31    34    1
    22    31    39    1
    23    32    35    1
    24    32    40    1
    25    41    43   ar
    26    15    19    2
    27    42    43   ar
    28    16    22    2
    29    17    12    1
    30    17    19   ar
    31    17    20   ar
    32    18    19   ar
    33    18    22   ar
    34    18    23    1
    35     9    10    1
    36     9    11    1
    37    10    12    1
    38    11     5    1
    39    33    34    1
    40    33    35    1
    41    34    36    1
    42    35    37    1
    43    37    43    1
    44    20    21   ar
    45    21    22   ar
@<TRIPOS>MOLECULE
UDP-glaA
 43 45 0 0 0
SMALL
GASTEIGER

@<TRIPOS>ATOM
      1 P          23.4482   72.1724   -3.5108 P.3     1  UNL1        0.2189
      2 O          24.0952   70.7453   -3.1083 O.3     1  UNL1       -0.4371
      3 O          24.4121   73.1612   -4.0985 O.2     1  UNL1       -0.5170
      4 O          22.6861   72.6479   -2.1660 O.3     1  UNL1       -0.3112
      5 C          23.4305   72.7446   -0.9636 C.3     1  UNL1        0.1811
      6 O          24.4333   71.2460    0.6248 O.3     1  UNL1       -0.3308
      7 O          21.6599   70.2241    1.1298 O.3     1  UNL1       -0.3794
      8 O          22.0781   71.8850    3.2517 O.3     1  UNL1       -0.3779
      9 C          22.0944   71.5533    0.8433 C.3     1  UNL1        0.1713
     10 C          22.7762   72.1554    2.0538 C.3     1  UNL1        0.1895
     11 C          23.2392   71.4677   -0.1576 C.3     1  UNL1        0.1764
     12 C          24.1414   71.4902    2.0106 C.3     1  UNL1        0.2383
     13 H          21.2656   69.8664    0.3161 H       1  UNL1        0.2105
     14 H          21.1808   72.2481    3.1559 H       1  UNL1        0.2106
     15 O          26.8224   70.6773    2.3669 O.2     1  UNL1       -0.2464
     16 O          28.0127   74.7545    4.1553 O.2     1  UNL1       -0.2670
     17 N          25.1728   72.3188    2.5663 N.ar    1  UNL1       -0.2551
     18 N          27.4132   72.7080    3.2577 N.ar    1  UNL1       -0.2743
     19 C          26.4873   71.8145    2.7032 C.ar    1  UNL1        0.3323
     20 C          24.8775   73.6164    2.9694 C.ar    1  UNL1        0.0869
     21 C          25.7717   74.4562    3.4959 C.ar    1  UNL1        0.0795
     22 C          27.1668   74.0072    3.6738 C.ar    1  UNL1        0.2626
     23 H          28.3645   72.3667    3.3661 H       1  UNL1        0.1734
     24 O          22.2307   71.7551   -4.4899 O.3     1  UNL1       -0.2703
     25 P          21.2281   72.6585   -5.3794 P.3     1  UNL1        0.2208
     26 O          21.5280   72.1670   -6.8909 O.3     1  UNL1       -0.4371
     27 O          21.3793   74.1376   -5.1669 O.2     1  UNL1       -0.5170
     28 O          19.7570   72.0843   -5.0476 O.3     1  UNL1       -0.2858
     29 O          18.9564   69.8668   -4.8443 O.3     1  UNL1       -0.3226
     30 O          15.6824   71.8272   -6.4926 O.3     1  UNL1       -0.3794
     31 O          18.3839   72.4180   -7.4194 O.3     1  UNL1       -0.3775
     32 O          16.1993   69.3289   -5.4339 O.3     1  UNL1       -0.3792
     33 C          16.8521   71.6392   -5.7009 C.3     1  UNL1        0.1718
     34 C          18.0533   71.3072   -6.5925 C.3     1  UNL1        0.1968
     35 C          16.6023   70.4973   -4.7119 C.3     1  UNL1        0.1723
     36 C          19.2745   70.9351   -5.7424 C.3     1  UNL1        0.2706
     37 C          17.8898   70.1857   -3.9520 C.3     1  UNL1        0.1830
     38 H          14.9488   72.0323   -5.8882 H       1  UNL1        0.2105
     39 H          19.1531   72.1648   -7.9571 H       1  UNL1        0.2106
     40 H          16.9782   68.9598   -5.8838 H       1  UNL1        0.2106
     41 O          17.1987   69.3487   -1.8722 O.co2   1  UNL1       -0.5466
     42 O          18.0252   67.8454   -3.3736 O.co2   1  UNL1       -0.5466
     43 C          17.7274   68.9908   -3.0672 C.2     1  UNL1        0.0799
@<TRIPOS>UNITY_ATOM_ATTR
41 1
charge -1
@<TRIPOS>BOND
     1     1     4    1
     2     1    24    1
     3     1     2    1
     4     1     3    2
     5    25    28    1
     6    25    24    1
     7    25    26    1
     8    25    27    2
     9     6    11    1
    10     6    12    1
    11    29    36    1
    12    29    37    1
    13     7     9    1
    14     7    13    1
    15     8    10    1
    16     8    14    1
    17     4     5    1
    18    28    36    1
    19    30    33    1
    20    30    38    1
    21    31    34    1
    22    31    39    1
    23    32    35    1
    24    32    40    1
    25    41    43   ar
    26    15    19    2
    27    42    43   ar
    28    16    22    2
    29    17    12    1
    30    17    19   ar
    31    17    20   ar
    32    18    19   ar
    33    18    22   ar
    34    18    23    1
    35     9    10    1
    36     9    11    1
    37    10    12    1
    38    11     5    1
    39    33    34    1
    40    33    35    1
    41    34    36    1
    42    35    37    1
    43    37    43    1
    44    20    21   ar
    45    21    22   ar
@<TRIPOS>MOLECULE
UDP-glaA
 43 45 0 0 0
SMALL
GASTEIGER

@<TRIPOS>ATOM
      1 P          21.9275   72.4453   -5.7815 P.3     1  UNL1        0.2189
      2 O          21.2986   73.8538   -5.2937 O.3     1  UNL1       -0.4371
      3 O          23.1129   72.5636   -6.6941 O.2     1  UNL1       -0.5170
      4 O          20.6594   71.6378   -6.3775 O.3     1  UNL1       -0.3112
      5 C          20.1994   71.9635   -7.6781 C.3     1  UNL1        0.1811
      6 O          18.9599   69.9598   -7.2055 O.3     1  UNL1       -0.3308
      7 O          18.1424   70.0085  -10.0901 O.3     1  UNL1       -0.3794
      8 O          15.9437   71.0165   -8.8309 O.3     1  UNL1       -0.3779
      9 C          18.3468   71.0981   -9.1907 C.3     1  UNL1        0.1713
     10 C          17.1993   71.1894   -8.2071 C.3     1  UNL1        0.1895
     11 C          19.5174   70.7445   -8.2828 C.3     1  UNL1        0.1764
     12 C          17.5272   70.0694   -7.2345 C.3     1  UNL1        0.2383
     13 H          18.9187   69.9653  -10.6741 H       1  UNL1        0.2105
     14 H          15.8581   71.7054   -9.5123 H       1  UNL1        0.2106
     15 O          16.4280   68.1244   -5.5070 O.2     1  UNL1       -0.2464
     16 O          15.7359   71.2203   -2.1641 O.2     1  UNL1       -0.2670
     17 N          17.0524   70.3391   -5.9074 N.ar    1  UNL1       -0.2551
     18 N          16.0836   69.6674   -3.8437 N.ar    1  UNL1       -0.2743
     19 C          16.5174   69.2916   -5.1218 C.ar    1  UNL1        0.3323
     20 C          17.1193   71.6306   -5.3965 C.ar    1  UNL1        0.0869
     21 C          16.7020   71.9729   -4.1756 C.ar    1  UNL1        0.0795
     22 C          16.1292   70.9383   -3.2918 C.ar    1  UNL1        0.2626
     23 H          15.6946   68.9307   -3.2614 H       1  UNL1        0.1734
     24 O          22.2238   71.6790   -4.3885 O.3     1  UNL1       -0.2703
     25 P          23.3934   71.8864   -3.2923 P.3     1  UNL1        0.2208
     26 O          24.2088   73.1641   -3.8568 O.3     1  UNL1       -0.4371
     27 O          24.2381   70.6675   -3.0547 O.2     1  UNL1       -0.5170
     28 O          22.6313   72.4354   -1.9802 O.3     1  UNL1       -0.2858
     29 O          22.5606   70.8780   -0.2000 O.3     1  UNL1       -0.3226
     30 O          20.0176   73.8716    1.1603 O.3     1  UNL1       -0.3794
     31 O          19.9583   73.0330   -1.6324 O.3     1  UNL1       -0.3775
     32 O          21.1584   71.5824    2.2034 O.3     1  UNL1       -0.3792
     33 C          21.1245   73.2803    0.4855 C.3     1  UNL1        0.1718
     34 C          20.6353   72.3192   -0.6032 C.3     1  UNL1        0.1968
     35 C          21.9801   72.5243    1.5058 C.3     1  UNL1        0.1723
     36 C          21.8116   71.5505   -1.2178 C.3     1  UNL1        0.2706
     37 C          23.0911   71.7662    0.7825 C.3     1  UNL1        0.1830
     38 H          20.3735   74.4686    1.8404 H       1  UNL1        0.2105
     39 H          19.6764   72.3865   -2.3012 H       1  UNL1        0.2106
     40 H          20.9620   70.8414    1.6054 H       1  UNL1        0.2106
     41 O          23.6667   71.2978    3.0080 O.co2   1  UNL1       -0.5466
     42 O          24.5988   69.9828    1.3959 O.co2   1  UNL1       -0.5466
     43 C          23.8733   70.9096    1.7266 C.2     1  UNL1        0.0799
@<TRIPOS>UNITY_ATOM_ATTR
41 1
charge -1
@<TRIPOS>BOND
     1     1     4    1
     2     1    24    1
     3     1     2    1
     4     1     3    2
     5    25    28    1
     6    25    24    1
     7    25    26    1
     8    25    27    2
     9     6    11    1
    10     6    12    1
    11    29    36    1
    12    29    37    1
    13     7     9    1
    14     7    13    1
    15     8    10    1
    16     8    14    1
    17     4     5    1
    18    28    36    1
    19    30    33    1
    20    30    38    1
    21    31    34    1
    22    31    39    1
    23    32    35    1
    24    32    40    1
    25    41    43   ar
    26    15    19    2
    27    42    43   ar
    28    16    22    2
    29    17    12    1
    30    17    19   ar
    31    17    20   ar
    32    18    19   ar
    33    18    22   ar
    34    18    23    1
    35     9    10    1
    36     9    11    1
    37    10    12    1
    38    11     5    1
    39    33    34    1
    40    33    35    1
    41    34    36    1
    42    35    37    1
    43    37    43    1
    44    20    21   ar
    45    21    22   ar
@<TRIPOS>MOLECULE
UDP-glaA
 43 45 0 0 0
SMALL
GASTEIGER

@<TRIPOS>ATOM
      1 P          14.5581   71.2304   -1.9763 P.3     1  UNL1        0.2189
      2 O          15.4877   71.7459   -0.7567 O.3     1  UNL1       -0.4371
      3 O          13.4558   72.1686   -2.3722 O.2     1  UNL1       -0.5170
      4 O          14.0912   69.7529   -1.5129 O.3     1  UNL1       -0.3112
      5 C          13.9385   69.4941   -0.1277 C.3     1  UNL1        0.1811
      6 O          11.5926   69.8284   -0.5269 O.3     1  UNL1       -0.3308
      7 O          11.4265   70.7322    2.3274 O.3     1  UNL1       -0.3794
      8 O          10.4858   68.1760    2.4565 O.3     1  UNL1       -0.3779
      9 C          12.2362   69.7082    1.7499 C.3     1  UNL1        0.1713
     10 C          11.3927   68.4945    1.4213 C.3     1  UNL1        0.1895
     11 C          12.6718   70.1772    0.3680 C.3     1  UNL1        0.1764
     12 C          10.6928   68.9323    0.1460 C.3     1  UNL1        0.2383
     13 H          12.0003   71.5014    2.4843 H       1  UNL1        0.2105
     14 H          11.0062   68.0157    3.2625 H       1  UNL1        0.2106
     15 O           8.9995   69.0881   -2.1088 O.2     1  UNL1       -0.2464
     16 O           9.6236   64.6339   -3.1134 O.2     1  UNL1       -0.2670
     17 N          10.3957   67.8293   -0.7226 N.ar    1  UNL1       -0.2551
     18 N           9.3110   66.8699   -2.6072 N.ar    1  UNL1       -0.2743
     19 C           9.5319   68.0129   -1.8276 C.ar    1  UNL1        0.3323
     20 C          10.9577   66.5816   -0.4757 C.ar    1  UNL1        0.0869
     21 C          10.7377   65.5017   -1.2287 C.ar    1  UNL1        0.0795
     22 C           9.8469   65.6081   -2.4013 C.ar    1  UNL1        0.2626
     23 H           8.6927   66.9782   -3.4067 H       1  UNL1        0.1734
     24 O          15.6322   70.9218   -3.1452 O.3     1  UNL1       -0.2703
     25 P          17.1696   71.3880   -3.3224 P.3     1  UNL1        0.2208
     26 O          17.9863   70.3260   -2.4161 O.3     1  UNL1       -0.4371
     27 O          17.4216   72.8263   -2.9706 O.2     1  UNL1       -0.5170
     28 O          17.5424   70.9986   -4.8434 O.3     1  UNL1       -0.2858
     29 O          18.9332   71.9464   -6.5068 O.3     1  UNL1       -0.3226
     30 O          15.6285   70.7374   -8.7197 O.3     1  UNL1       -0.3794
     31 O          15.2860   71.9739   -6.1006 O.3     1  UNL1       -0.3775
     32 O          18.1521   71.7223   -9.2596 O.3     1  UNL1       -0.3792
     33 C          16.6168   70.7098   -7.6936 C.3     1  UNL1        0.1718
     34 C          16.5148   71.9643   -6.8195 C.3     1  UNL1        0.1968
     35 C          18.0018   70.6342   -8.3419 C.3     1  UNL1        0.1723
     36 C          17.6786   72.0277   -5.8224 C.3     1  UNL1        0.2706
     37 C          19.0792   70.7469   -7.2654 C.3     1  UNL1        0.1830
     38 H          15.7318   69.9278   -9.2483 H       1  UNL1        0.2105
     39 H          15.2709   72.7789   -5.5560 H       1  UNL1        0.2106
     40 H          18.2778   72.5408   -8.7503 H       1  UNL1        0.2106
     41 O          21.0994   69.6328   -7.6914 O.co2   1  UNL1       -0.5466
     42 O          20.9200   71.7792   -8.4383 O.co2   1  UNL1       -0.5466
     43 C          20.4479   70.8080   -7.8654 C.2     1  UNL1        0.0799
@<TRIPOS>UNITY_ATOM_ATTR
41 1
charge -1
@<TRIPOS>BOND
     1     1     4    1
     2     1    24    1
     3     1     2    1
     4     1     3    2
     5    25    28    1
     6    25    24    1
     7    25    26    1
     8    25    27    2
     9     6    11    1
    10     6    12    1
    11    29    36    1
    12    29    37    1
    13     7     9    1
    14     7    13    1
    15     8    10    1
    16     8    14    1
    17     4     5    1
    18    28    36    1
    19    30    33    1
    20    30    38    1
    21    31    34    1
    22    31    39    1
    23    32    35    1
    24    32    40    1
    25    41    43   ar
    26    15    19    2
    27    42    43   ar
    28    16    22    2
    29    17    12    1
    30    17    19   ar
    31    17    20   ar
    32    18    19   ar
    33    18    22   ar
    34    18    23    1
    35     9    10    1
    36     9    11    1
    37    10    12    1
    38    11     5    1
    39    33    34    1
    40    33    35    1
    41    34    36    1
    42    35    37    1
    43    37    43    1
    44    20    21   ar
    45    21    22   ar
@<TRIPOS>MOLECULE
UDP-glaA
 43 45 0 0 0
SMALL
GASTEIGER

@<TRIPOS>ATOM
      1 P          23.5715   72.3139   -3.4474 P.3     1  UNL1        0.2189
      2 O          24.2225   70.8709   -3.1135 O.3     1  UNL1       -0.4371
      3 O          24.5448   73.3526   -3.9225 O.2     1  UNL1       -0.5170
      4 O          22.7430   72.6866   -2.1094 O.3     1  UNL1       -0.3112
      5 C          23.4354   72.7272   -0.8731 C.3     1  UNL1        0.1811
      6 O          24.4627   71.0515    0.5092 O.3     1  UNL1       -0.3308
      7 O          21.6777   70.1783    1.1967 O.3     1  UNL1       -0.3794
      8 O          22.3981   71.6447    3.3800 O.3     1  UNL1       -0.3779
      9 C          22.1800   71.4940    0.9633 C.3     1  UNL1        0.1713
     10 C          23.0066   71.9577    2.1441 C.3     1  UNL1        0.1895
     11 C          23.2239   71.4088   -0.1426 C.3     1  UNL1        0.1764
     12 C          24.3113   71.2097    1.9295 C.3     1  UNL1        0.2383
     13 H          21.1892   69.9091    0.4002 H       1  UNL1        0.2105
     14 H          21.5244   72.0719    3.3926 H       1  UNL1        0.2106
     15 O          24.2859   73.9443    2.6344 O.2     1  UNL1       -0.2464
     16 O          28.7195   73.8503    3.8886 O.2     1  UNL1       -0.2670
     17 N          25.4443   71.9251    2.4432 N.ar    1  UNL1       -0.2551
     18 N          26.4938   73.8958    3.2579 N.ar    1  UNL1       -0.2743
     19 C          25.3265   73.2973    2.7656 C.ar    1  UNL1        0.3323
     20 C          26.6561   71.2674    2.6228 C.ar    1  UNL1        0.0869
     21 C          27.7599   71.8519    3.0937 C.ar    1  UNL1        0.0795
     22 C          27.7219   73.2832    3.4536 C.ar    1  UNL1        0.2626
     23 H          26.4327   74.8821    3.4958 H       1  UNL1        0.1734
     24 O          22.4054   71.9489   -4.5067 O.3     1  UNL1       -0.2703
     25 P          21.8219   72.7751   -5.7675 P.3     1  UNL1        0.2208
     26 O          22.9463   72.5535   -6.9088 O.3     1  UNL1       -0.4371
     27 O          21.5144   74.2150   -5.4713 O.2     1  UNL1       -0.5170
     28 O          20.5541   71.9125   -6.2702 O.3     1  UNL1       -0.2858
     29 O          18.3575   72.0309   -7.1422 O.3     1  UNL1       -0.3226
     30 O          17.7575   70.0525   -3.5359 O.3     1  UNL1       -0.3794
     31 O          19.6119   72.2973   -3.7037 O.3     1  UNL1       -0.3775
     32 O          16.2431   70.6645   -5.7635 O.3     1  UNL1       -0.3792
     33 C          18.4180   70.4485   -4.7348 C.3     1  UNL1        0.1718
     34 C          18.6812   71.9581   -4.7263 C.3     1  UNL1        0.1968
     35 C          17.5376   70.0769   -5.9311 C.3     1  UNL1        0.1723
     36 C          19.2344   72.4206   -6.0800 C.3     1  UNL1        0.2706
     37 C          18.1610   70.6197   -7.2153 C.3     1  UNL1        0.1830
     38 H          17.6092   69.0928   -3.5859 H       1  UNL1        0.2105
     39 H          19.7539   73.2581   -3.7432 H       1  UNL1        0.2106
     40 H          16.3136   71.6197   -5.9299 H       1  UNL1        0.2106
     41 O          17.9815   69.9284   -9.4499 O.co2   1  UNL1       -0.5466
     42 O          16.0638   70.5927   -8.4115 O.co2   1  UNL1       -0.5466
     43 C          17.2697   70.3926   -8.3947 C.2     1  UNL1        0.0799
@<TRIPOS>UNITY_ATOM_ATTR
41 1
charge -1
@<TRIPOS>BOND
     1     1     4    1
     2     1    24    1
     3     1     2    1
     4     1     3    2
     5    25    28    1
     6    25    24    1
     7    25    26    1
     8    25    27    2
     9     6    11    1
    10     6    12    1
    11    29    36    1
    12    29    37    1
    13     7     9    1
    14     7    13    1
    15     8    10    1
    16     8    14    1
    17     4     5    1
    18    28    36    1
    19    30    33    1
    20    30    38    1
    21    31    34    1
    22    31    39    1
    23    32    35    1
    24    32    40    1
    25    41    43   ar
    26    15    19    2
    27    42    43   ar
    28    16    22    2
    29    17    12    1
    30    17    19   ar
    31    17    20   ar
    32    18    19   ar
    33    18    22   ar
    34    18    23    1
    35     9    10    1
    36     9    11    1
    37    10    12    1
    38    11     5    1
    39    33    34    1
    40    33    35    1
    41    34    36    1
    42    35    37    1
    43    37    43    1
    44    20    21   ar
    45    21    22   ar
@<TRIPOS>MOLECULE
UDP-glaA
 43 45 0 0 0
SMALL
GASTEIGER

@<TRIPOS>ATOM
      1 P          21.3534   71.2881   -1.1486 P.3     1  UNL1        0.2189
      2 O          22.9045   70.9812   -1.4911 O.3     1  UNL1       -0.4371
      3 O          20.8138   70.5617    0.0486 O.2     1  UNL1       -0.5170
      4 O          20.5842   71.0117   -2.5442 O.3     1  UNL1       -0.3112
      5 C          20.5467   72.0454   -3.5133 C.3     1  UNL1        0.1811
      6 O          20.9244   70.8381   -5.5563 O.3     1  UNL1       -0.3308
      7 O          23.2426   72.6873   -6.0014 O.3     1  UNL1       -0.3794
      8 O          21.3185   73.7446   -7.6187 O.3     1  UNL1       -0.3779
      9 C          21.9709   72.9587   -5.4124 C.3     1  UNL1        0.1713
     10 C          20.8997   73.0198   -6.4808 C.3     1  UNL1        0.1895
     11 C          21.5529   71.7325   -4.6117 C.3     1  UNL1        0.1764
     12 C          20.6667   71.5484   -6.7788 C.3     1  UNL1        0.2383
     13 H          23.8884   72.6186   -5.2777 H       1  UNL1        0.2105
     14 H          21.5516   74.6420   -7.3246 H       1  UNL1        0.2106
     15 O          19.9523   69.6024   -8.6966 O.2     1  UNL1       -0.2464
     16 O          15.4713   70.6101   -8.3181 O.2     1  UNL1       -0.2670
     17 N          19.3212   71.2807   -7.1999 N.ar    1  UNL1       -0.2551
     18 N          17.7215   70.1058   -8.5073 N.ar    1  UNL1       -0.2743
     19 C          19.0699   70.2827   -8.1702 C.ar    1  UNL1        0.3323
     20 C          18.2669   72.0036   -6.6528 C.ar    1  UNL1        0.0869
     21 C          16.9866   71.8228   -6.9843 C.ar    1  UNL1        0.0795
     22 C          16.6386   70.8005   -7.9909 C.ar    1  UNL1        0.2626
     23 H          17.5171   69.3939   -9.2034 H       1  UNL1        0.1734
     24 O          21.3209   72.9005   -1.0293 O.3     1  UNL1       -0.2703
     25 P          22.4520   73.9513   -0.5506 P.3     1  UNL1        0.2208
     26 O          21.9675   75.3452   -1.2127 O.3     1  UNL1       -0.4371
     27 O          23.8550   73.5505   -0.9063 O.2     1  UNL1       -0.5170
     28 O          22.1929   74.1386    1.0311 O.3     1  UNL1       -0.2858
     29 O          23.4295   73.1306    2.7788 O.3     1  UNL1       -0.3226
     30 O          19.7256   73.7323    4.5672 O.3     1  UNL1       -0.3794
     31 O          19.9054   72.8025    1.8088 O.3     1  UNL1       -0.3775
     32 O          22.2412   72.9358    5.3843 O.3     1  UNL1       -0.3792
     33 C          20.8412   73.9819    3.7167 C.3     1  UNL1        0.1718
     34 C          21.0092   72.8413    2.7071 C.3     1  UNL1        0.1968
     35 C          22.1012   74.1096    4.5772 C.3     1  UNL1        0.1723
     36 C          22.3035   73.0141    1.9026 C.3     1  UNL1        0.2706
     37 C          23.3276   74.2353    3.6759 C.3     1  UNL1        0.1830
     38 H          19.6591   74.4764    5.1897 H       1  UNL1        0.2105
     39 H          20.0604   72.0734    1.1849 H       1  UNL1        0.2106
     40 H          22.5310   72.2026    4.8154 H       1  UNL1        0.2106
     41 O          25.6547   73.9380    3.6816 O.co2   1  UNL1       -0.5466
     42 O          24.6706   74.4660    5.6691 O.co2   1  UNL1       -0.5466
     43 C          24.5941   74.2325    4.4715 C.2     1  UNL1        0.0799
@<TRIPOS>UNITY_ATOM_ATTR
41 1
charge -1
@<TRIPOS>BOND
     1     1     4    1
     2     1    24    1
     3     1     2    1
     4     1     3    2
     5    25    28    1
     6    25    24    1
     7    25    26    1
     8    25    27    2
     9     6    11    1
    10     6    12    1
    11    29    36    1
    12    29    37    1
    13     7     9    1
    14     7    13    1
    15     8    10    1
    16     8    14    1
    17     4     5    1
    18    28    36    1
    19    30    33    1
    20    30    38    1
    21    31    34    1
    22    31    39    1
    23    32    35    1
    24    32    40    1
    25    41    43   ar
    26    15    19    2
    27    42    43   ar
    28    16    22    2
    29    17    12    1
    30    17    19   ar
    31    17    20   ar
    32    18    19   ar
    33    18    22   ar
    34    18    23    1
    35     9    10    1
    36     9    11    1
    37    10    12    1
    38    11     5    1
    39    33    34    1
    40    33    35    1
    41    34    36    1
    42    35    37    1
    43    37    43    1
    44    20    21   ar
    45    21    22   ar
@<TRIPOS>MOLECULE
UDP-glaA
 43 45 0 0 0
SMALL
GASTEIGER

@<TRIPOS>ATOM
      1 P          15.0800   70.6581   -1.5106 P.3     1  UNL1        0.2189
      2 O          15.9466   71.9227   -0.9936 O.3     1  UNL1       -0.4371
      3 O          13.6778   70.9829   -1.9354 O.2     1  UNL1       -0.5170
      4 O          15.2201   69.5756   -0.3173 O.3     1  UNL1       -0.3112
      5 C          14.2123   68.5890   -0.1759 C.3     1  UNL1        0.1811
      6 O          12.2665   68.5940    1.2341 O.3     1  UNL1       -0.3308
      7 O          14.0878   67.6786    3.4333 O.3     1  UNL1       -0.3794
      8 O          12.8622   65.3643    2.6729 O.3     1  UNL1       -0.3779
      9 C          14.1138   67.3514    2.0440 C.3     1  UNL1        0.1713
     10 C          12.9933   66.3895    1.7099 C.3     1  UNL1        0.1895
     11 C          13.7109   68.5942    1.2612 C.3     1  UNL1        0.1764
     12 C          11.7866   67.3116    1.6706 C.3     1  UNL1        0.2383
     13 H          14.7964   68.3252    3.5921 H       1  UNL1        0.2105
     14 H          13.7109   64.8908    2.7138 H       1  UNL1        0.2106
     15 O           9.0201   67.7838    1.9852 O.2     1  UNL1       -0.2464
     16 O           8.0052   65.5101   -1.8928 O.2     1  UNL1       -0.2670
     17 N          10.7773   66.8552    0.7583 N.ar    1  UNL1       -0.2551
     18 N           8.5165   66.6508    0.0542 N.ar    1  UNL1       -0.2743
     19 C           9.4156   67.1449    1.0084 C.ar    1  UNL1        0.3323
     20 C          11.1405   66.1285   -0.3702 C.ar    1  UNL1        0.0869
     21 C          10.2714   65.6648   -1.2709 C.ar    1  UNL1        0.0795
     22 C           8.8299   65.9232   -1.0834 C.ar    1  UNL1        0.2626
     23 H           7.5320   66.8466    0.2139 H       1  UNL1        0.1734
     24 O          16.0099   70.0345   -2.6776 O.3     1  UNL1       -0.2703
     25 P          17.5565   69.5651   -2.6636 P.3     1  UNL1        0.2208
     26 O          17.4554   67.9591   -2.5000 O.3     1  UNL1       -0.4371
     27 O          18.3966   70.2430   -1.6194 O.2     1  UNL1       -0.5170
     28 O          18.0658   69.7900   -4.1782 O.3     1  UNL1       -0.2858
     29 O          19.1343   71.7056   -5.0659 O.3     1  UNL1       -0.3226
     30 O          17.2037   70.1588   -8.4064 O.3     1  UNL1       -0.3794
     31 O          15.8753   70.1916   -5.8102 O.3     1  UNL1       -0.3775
     32 O          19.0430   72.1561   -7.8992 O.3     1  UNL1       -0.3792
     33 C          17.8956   70.1628   -7.1608 C.3     1  UNL1        0.1718
     34 C          17.0762   70.9007   -6.0967 C.3     1  UNL1        0.1968
     35 C          19.2504   70.8510   -7.3491 C.3     1  UNL1        0.1723
     36 C          17.8842   71.0601   -4.8028 C.3     1  UNL1        0.2706
     37 C          19.9465   70.9924   -5.9972 C.3     1  UNL1        0.1830
     38 H          17.7589   69.6848   -9.0489 H       1  UNL1        0.2105
     39 H          15.3962   70.6900   -5.1269 H       1  UNL1        0.2106
     40 H          18.6865   72.7321   -7.2018 H       1  UNL1        0.2106
     41 O          21.6701   71.7612   -7.3908 O.co2   1  UNL1       -0.5466
     42 O          21.7711   72.3530   -5.1915 O.co2   1  UNL1       -0.5466
     43 C          21.2157   71.7750   -6.1145 C.2     1  UNL1        0.0799
@<TRIPOS>UNITY_ATOM_ATTR
41 1
charge -1
@<TRIPOS>BOND
     1     1     4    1
     2     1    24    1
     3     1     2    1
     4     1     3    2
     5    25    28    1
     6    25    24    1
     7    25    26    1
     8    25    27    2
     9     6    11    1
    10     6    12    1
    11    29    36    1
    12    29    37    1
    13     7     9    1
    14     7    13    1
    15     8    10    1
    16     8    14    1
    17     4     5    1
    18    28    36    1
    19    30    33    1
    20    30    38    1
    21    31    34    1
    22    31    39    1
    23    32    35    1
    24    32    40    1
    25    41    43   ar
    26    15    19    2
    27    42    43   ar
    28    16    22    2
    29    17    12    1
    30    17    19   ar
    31    17    20   ar
    32    18    19   ar
    33    18    22   ar
    34    18    23    1
    35     9    10    1
    36     9    11    1
    37    10    12    1
    38    11     5    1
    39    33    34    1
    40    33    35    1
    41    34    36    1
    42    35    37    1
    43    37    43    1
    44    20    21   ar
    45    21    22   ar
@<TRIPOS>MOLECULE
UDP-glaA
 43 45 0 0 0
SMALL
GASTEIGER

@<TRIPOS>ATOM
      1 P          19.8981   72.4698   -2.1601 P.3     1  UNL1        0.2189
      2 O          18.6133   72.7905   -1.2307 O.3     1  UNL1       -0.4371
      3 O          19.9651   73.2518   -3.4392 O.2     1  UNL1       -0.5170
      4 O          19.8711   70.8607   -2.3205 O.3     1  UNL1       -0.3112
      5 C          19.3324   70.3074   -3.5091 C.3     1  UNL1        0.1811
      6 O          17.6411   71.3717   -4.8436 O.3     1  UNL1       -0.3308
      7 O          15.6490   69.8580   -3.1909 O.3     1  UNL1       -0.3794
      8 O          15.7622   68.3857   -5.4832 O.3     1  UNL1       -0.3779
      9 C          16.9406   69.4528   -3.6439 C.3     1  UNL1        0.1713
     10 C          16.9029   69.1377   -5.1244 C.3     1  UNL1        0.1895
     11 C          17.8566   70.6687   -3.6000 C.3     1  UNL1        0.1764
     12 C          16.9058   70.5253   -5.7427 C.3     1  UNL1        0.2383
     13 H          15.7307   70.0865   -2.2492 H       1  UNL1        0.2105
     14 H          15.7790   67.5629   -4.9647 H       1  UNL1        0.2106
     15 O          15.5181   70.5412   -8.2022 O.2     1  UNL1       -0.2464
     16 O          19.4388   70.6196  -10.6230 O.2     1  UNL1       -0.2670
     17 N          17.5385   70.5504   -7.0305 N.ar    1  UNL1       -0.2551
     18 N          17.4714   70.5797   -9.4061 N.ar    1  UNL1       -0.2743
     19 C          16.7503   70.5555   -8.2050 C.ar    1  UNL1        0.3323
     20 C          18.9259   70.5693   -7.1208 C.ar    1  UNL1        0.0869
     21 C          19.5985   70.5928   -8.2736 C.ar    1  UNL1        0.0795
     22 C          18.8504   70.5988   -9.5463 C.ar    1  UNL1        0.2626
     23 H          16.9253   70.5832  -10.2634 H       1  UNL1        0.1734
     24 O          21.1419   72.7137   -1.1557 O.3     1  UNL1       -0.2703
     25 P          21.7407   74.0741   -0.5205 P.3     1  UNL1        0.2208
     26 O          21.4417   73.9085    1.0604 O.3     1  UNL1       -0.4371
     27 O          21.1888   75.3323   -1.1274 O.2     1  UNL1       -0.5170
     28 O          23.3413   73.9169   -0.6521 O.3     1  UNL1       -0.2858
     29 O          24.0594   73.5120    1.5659 O.3     1  UNL1       -0.3226
     30 O          21.4999   70.3090    0.8807 O.3     1  UNL1       -0.3794
     31 O          23.3347   71.2107   -1.1993 O.3     1  UNL1       -0.3775
     32 O          22.8539   71.3668    3.0436 O.3     1  UNL1       -0.3792
     33 C          22.0127   71.6357    0.7952 C.3     1  UNL1        0.1718
     34 C          23.4069   71.6299    0.1594 C.3     1  UNL1        0.1968
     35 C          22.0819   72.2316    2.2040 C.3     1  UNL1        0.1723
     36 C          24.0372   73.0268    0.2194 C.3     1  UNL1        0.2706
     37 C          22.7606   73.5986    2.1502 C.3     1  UNL1        0.1830
     38 H          20.6196   70.3606    1.2904 H       1  UNL1        0.2105
     39 H          24.2366   71.2320   -1.5612 H       1  UNL1        0.2106
     40 H          23.7915   71.4594    2.8036 H       1  UNL1        0.2106
     41 O          23.7131   73.3203    4.2760 O.co2   1  UNL1       -0.5466
     42 O          22.5282   75.2335    3.9117 O.co2   1  UNL1       -0.5466
     43 C          22.9667   74.1615    3.5205 C.2     1  UNL1        0.0799
@<TRIPOS>UNITY_ATOM_ATTR
41 1
charge -1
@<TRIPOS>BOND
     1     1     4    1
     2     1    24    1
     3     1     2    1
     4     1     3    2
     5    25    28    1
     6    25    24    1
     7    25    26    1
     8    25    27    2
     9     6    11    1
    10     6    12    1
    11    29    36    1
    12    29    37    1
    13     7     9    1
    14     7    13    1
    15     8    10    1
    16     8    14    1
    17     4     5    1
    18    28    36    1
    19    30    33    1
    20    30    38    1
    21    31    34    1
    22    31    39    1
    23    32    35    1
    24    32    40    1
    25    41    43   ar
    26    15    19    2
    27    42    43   ar
    28    16    22    2
    29    17    12    1
    30    17    19   ar
    31    17    20   ar
    32    18    19   ar
    33    18    22   ar
    34    18    23    1
    35     9    10    1
    36     9    11    1
    37    10    12    1
    38    11     5    1
    39    33    34    1
    40    33    35    1
    41    34    36    1
    42    35    37    1
    43    37    43    1
    44    20    21   ar
    45    21    22   ar
