@<TRIPOS>MOLECULE
*****
 43 45 0 0 0
SMALL
GASTEIGER

@<TRIPOS>ATOM
      1 P          22.8675   71.3896   -2.3149 P.3     1  UNL1        0.2189
      2 O          22.4321   72.8763   -2.7830 O.co2   1  UNL1       -0.4371
      3 O          24.1252   70.8693   -2.9469 O.2     1  UNL1       -0.5170
      4 O          21.5382   70.5003   -2.5598 O.3     1  UNL1       -0.3112
      5 C          20.8630   70.6205   -3.7984 C.3     1  UNL1        0.1811
      6 O          18.9368   71.7018   -4.7462 O.3     1  UNL1       -0.3308
      7 O          17.3714   70.4626   -2.5090 O.3     1  UNL1       -0.3794
      8 O          16.8079   68.8202   -4.6116 O.3     1  UNL1       -0.3779
      9 C          18.4782   69.9330   -3.2390 C.3     1  UNL1        0.1713
     10 C          18.0387   69.5127   -4.6256 C.3     1  UNL1        0.1895
     11 C          19.4334   71.0795   -3.5415 C.3     1  UNL1        0.1764
     12 C          17.9508   70.8470   -5.3465 C.3     1  UNL1        0.2383
     13 H          16.7472   69.7484   -2.3042 H       1  UNL1        0.2105
     14 H          16.9161   67.9779   -4.1418 H       1  UNL1        0.2106
     15 O          16.0096   70.2475   -7.3084 O.2     1  UNL1       -0.2464
     16 O          19.1218   70.4245  -10.7035 O.2     1  UNL1       -0.2670
     17 N          18.2264   70.7304   -6.7506 N.ar    1  UNL1       -0.2551
     18 N          17.5617   70.3352   -8.9974 N.ar    1  UNL1       -0.2743
     19 C          17.1796   70.4256   -7.6524 C.ar    1  UNL1        0.3323
     20 C          19.5202   70.9187   -7.2214 C.ar    1  UNL1        0.0869
     21 C          19.8690   70.8294   -8.5063 C.ar    1  UNL1        0.0795
     22 C          18.8350   70.5135   -9.5135 C.ar    1  UNL1        0.2626
     23 H          16.8505   70.1219   -9.6439 H       1  UNL1        0.1734
     24 O          22.9267   71.5190   -0.7048 O.3     1  UNL1       -0.2703
     25 P          21.7469   71.6037    0.3974 P.3     1  UNL1        0.2208
     26 O          21.6795   70.0964    0.9836 O.co2   1  UNL1       -0.4371
     27 O          20.4416   72.1186   -0.1363 O.2     1  UNL1       -0.5170
     28 O          22.3715   72.4804    1.5989 O.3     1  UNL1       -0.2858
     29 O          24.1986   71.5465    2.7816 O.3     1  UNL1       -0.3226
     30 O          23.1033   74.6686    5.2556 O.3     1  UNL1       -0.3794
     31 O          21.0686   72.9876    4.0033 O.3     1  UNL1       -0.3775
     32 O          25.4696   74.8941    3.5819 O.3     1  UNL1       -0.3792
     33 C          23.2772   73.9915    4.0109 C.3     1  UNL1        0.1718
     34 C          22.4617   72.6983    4.0135 C.3     1  UNL1        0.1968
     35 C          24.7666   73.6813    3.8453 C.3     1  UNL1        0.1723
     36 C          22.8002   71.8356    2.7970 C.3     1  UNL1        0.2706
     37 C          25.0093   72.7158    2.6888 C.3     1  UNL1        0.1830
     38 H          22.1641   74.8761    5.3826 H       1  UNL1        0.2105
     39 H          20.8468   73.5350    4.7724 H       1  UNL1        0.2106
     40 H          25.3232   75.5174    4.3106 H       1  UNL1        0.2106
     41 O          26.4208   70.8831    2.3008 O.co2   1  UNL1       -0.5466
     42 O          27.3825   72.7819    3.1189 O.co2   1  UNL1       -0.5466
     43 C          26.3977   72.1662    2.7391 C.2     1  UNL1        0.0799
@<TRIPOS>UNITY_ATOM_ATTR
2 1
charge -1
26 1
charge -1
41 1
charge -1
@<TRIPOS>BOND
     1     1     4    1
     2     1    24    1
     3     1     2    1
     4     1     3    2
     5    25    28    1
     6    25    24    1
     7    25    26    1
     8    25    27    2
     9     6    11    1
    10     6    12    1
    11    29    36    1
    12    29    37    1
    13     7     9    1
    14     7    13    1
    15     8    10    1
    16     8    14    1
    17     4     5    1
    18    28    36    1
    19    30    33    1
    20    30    38    1
    21    31    34    1
    22    31    39    1
    23    32    35    1
    24    32    40    1
    25    41    43   ar
    26    15    19    2
    27    42    43   ar
    28    16    22    2
    29    17    12    1
    30    17    19   ar
    31    17    20   ar
    32    18    19   ar
    33    18    22   ar
    34    18    23    1
    35     9    10    1
    36     9    11    1
    37    10    12    1
    38    11     5    1
    39    33    34    1
    40    33    35    1
    41    34    36    1
    42    35    37    1
    43    37    43    1
    44    20    21   ar
    45    21    22   ar
@<TRIPOS>MOLECULE
*****
 43 45 0 0 0
SMALL
GASTEIGER

@<TRIPOS>ATOM
      1 P          23.2373   71.7404   -2.9102 P.3     1  UNL1        0.2189
      2 O          23.5744   73.3063   -3.1414 O.co2   1  UNL1       -0.4371
      3 O          24.3798   70.8019   -3.1663 O.2     1  UNL1       -0.5170
      4 O          21.9109   71.4927   -3.8030 O.3     1  UNL1       -0.3112
      5 C          21.5827   72.4392   -4.8034 C.3     1  UNL1        0.1811
      6 O          20.5908   70.5275   -5.8707 O.3     1  UNL1       -0.3308
      7 O          20.9084   72.0326   -8.4446 O.3     1  UNL1       -0.3794
      8 O          18.2691   72.3963   -7.8635 O.3     1  UNL1       -0.3779
      9 C          20.5879   72.5252   -7.1434 C.3     1  UNL1        0.1713
     10 C          19.1580   72.1763   -6.7884 C.3     1  UNL1        0.1895
     11 C          21.3763   71.7120   -6.1259 C.3     1  UNL1        0.1764
     12 C          19.2746   70.7078   -6.4171 C.3     1  UNL1        0.2383
     13 H          20.4165   72.5370   -9.1119 H       1  UNL1        0.2105
     14 H          18.2295   73.3456   -8.0613 H       1  UNL1        0.2106
     15 O          16.6689   69.8053   -7.0271 O.2     1  UNL1       -0.2464
     16 O          15.6341   69.2146   -2.5746 O.2     1  UNL1       -0.2670
     17 N          18.3037   70.3117   -5.4367 N.ar    1  UNL1       -0.2551
     18 N          16.1557   69.5129   -4.8089 N.ar    1  UNL1       -0.2743
     19 C          17.0228   69.8738   -5.8485 C.ar    1  UNL1        0.3323
     20 C          18.6241   70.3575   -4.0853 C.ar    1  UNL1        0.0869
     21 C          17.7870   70.0102   -3.1058 C.ar    1  UNL1        0.0795
     22 C          16.4286   69.5421   -3.4509 C.ar    1  UNL1        0.2626
     23 H          15.2574   69.2067   -5.0709 H       1  UNL1        0.1734
     24 O          22.6679   71.7113   -1.3977 O.3     1  UNL1       -0.2703
     25 P          21.2282   72.1356   -0.7971 P.3     1  UNL1        0.2208
     26 O          20.4950   70.7130   -0.5540 O.co2   1  UNL1       -0.4371
     27 O          20.4566   73.0890   -1.6629 O.2     1  UNL1       -0.5170
     28 O          21.5491   72.6867    0.6847 O.3     1  UNL1       -0.2858
     29 O          22.8316   71.1010    1.8887 O.3     1  UNL1       -0.3226
     30 O          22.2058   74.0193    4.7452 O.3     1  UNL1       -0.3794
     31 O          20.0397   73.2027    2.9632 O.3     1  UNL1       -0.3775
     32 O          24.7951   73.7813    3.4453 O.3     1  UNL1       -0.3792
     33 C          22.4016   73.5063    3.4275 C.3     1  UNL1        0.1718
     34 C          21.2822   72.5210    3.0903 C.3     1  UNL1        0.1968
     35 C          23.7596   72.8018    3.3912 C.3     1  UNL1        0.1723
     36 C          21.5798   71.7804    1.7858 C.3     1  UNL1        0.2706
     37 C          23.9287   71.9834    2.1144 C.3     1  UNL1        0.1830
     38 H          21.3487   74.4715    4.7923 H       1  UNL1        0.2105
     39 H          19.8447   73.6751    3.7873 H       1  UNL1        0.2106
     40 H          24.6989   74.3092    4.2533 H       1  UNL1        0.2106
     41 O          24.7344   69.7945    1.8675 O.co2   1  UNL1       -0.5466
     42 O          26.2106   71.3695    2.6017 O.co2   1  UNL1       -0.5466
     43 C          25.0904   71.0512    2.2318 C.2     1  UNL1        0.0799
@<TRIPOS>UNITY_ATOM_ATTR
2 1
charge -1
26 1
charge -1
41 1
charge -1
@<TRIPOS>BOND
     1     1     4    1
     2     1    24    1
     3     1     2    1
     4     1     3    2
     5    25    28    1
     6    25    24    1
     7    25    26    1
     8    25    27    2
     9     6    11    1
    10     6    12    1
    11    29    36    1
    12    29    37    1
    13     7     9    1
    14     7    13    1
    15     8    10    1
    16     8    14    1
    17     4     5    1
    18    28    36    1
    19    30    33    1
    20    30    38    1
    21    31    34    1
    22    31    39    1
    23    32    35    1
    24    32    40    1
    25    41    43   ar
    26    15    19    2
    27    42    43   ar
    28    16    22    2
    29    17    12    1
    30    17    19   ar
    31    17    20   ar
    32    18    19   ar
    33    18    22   ar
    34    18    23    1
    35     9    10    1
    36     9    11    1
    37    10    12    1
    38    11     5    1
    39    33    34    1
    40    33    35    1
    41    34    36    1
    42    35    37    1
    43    37    43    1
    44    20    21   ar
    45    21    22   ar
@<TRIPOS>MOLECULE
*****
 43 45 0 0 0
SMALL
GASTEIGER

@<TRIPOS>ATOM
      1 P          22.1040   71.5721   -3.0533 P.3     1  UNL1        0.2189
      2 O          21.9041   73.1581   -2.8018 O.co2   1  UNL1       -0.4371
      3 O          23.4688   71.1738   -3.5335 O.2     1  UNL1       -0.5170
      4 O          20.8734   71.1748   -4.0258 O.3     1  UNL1       -0.3112
      5 C          20.0003   70.1362   -3.6215 C.3     1  UNL1        0.1811
      6 O          18.3111   71.4095   -4.7631 O.3     1  UNL1       -0.3308
      7 O          16.3522   70.1608   -2.8671 O.3     1  UNL1       -0.3794
      8 O          16.0056   68.6893   -5.1366 O.3     1  UNL1       -0.3779
      9 C          17.5196   69.5945   -3.4630 C.3     1  UNL1        0.1713
     10 C          17.2665   69.2890   -4.9242 C.3     1  UNL1        0.1895
     11 C          18.5807   70.6833   -3.5443 C.3     1  UNL1        0.1764
     12 C          17.3733   70.6658   -5.5573 C.3     1  UNL1        0.2383
     13 H          15.6599   69.4837   -2.8045 H       1  UNL1        0.2105
     14 H          15.9881   67.8154   -4.7148 H       1  UNL1        0.2106
     15 O          15.7151   70.3097   -7.8156 O.2     1  UNL1       -0.2464
     16 O          19.3036   70.4713  -10.7035 O.2     1  UNL1       -0.2670
     17 N          17.8480   70.6111   -6.9110 N.ar    1  UNL1       -0.2551
     18 N          17.5041   70.3895   -9.2517 N.ar    1  UNL1       -0.2743
     19 C          16.9316   70.4286   -7.9735 C.ar    1  UNL1        0.3323
     20 C          19.2062   70.7391   -7.1755 C.ar    1  UNL1        0.0869
     21 C          19.7370   70.6998   -8.3992 C.ar    1  UNL1        0.0795
     22 C          18.8483   70.5114   -9.5646 C.ar    1  UNL1        0.2626
     23 H          16.8861   70.2612  -10.0074 H       1  UNL1        0.1734
     24 O          21.6724   70.9229   -1.6373 O.3     1  UNL1       -0.2703
     25 P          21.1842   71.6117   -0.2586 P.3     1  UNL1        0.2208
     26 O          21.1967   70.3820    0.7939 O.co2   1  UNL1       -0.4371
     27 O          19.8675   72.3259   -0.3597 O.2     1  UNL1       -0.5170
     28 O          22.4198   72.5460    0.1920 O.3     1  UNL1       -0.2858
     29 O          22.1624   73.6331    2.2803 O.3     1  UNL1       -0.3226
     30 O          25.4947   75.5345    0.7478 O.3     1  UNL1       -0.3794
     31 O          23.2036   74.9494   -0.9677 O.3     1  UNL1       -0.3775
     32 O          25.7868   73.5409    2.8433 O.3     1  UNL1       -0.3792
     33 C          24.5956   74.4449    0.9542 C.3     1  UNL1        0.1718
     34 C          23.2038   74.8273    0.4499 C.3     1  UNL1        0.1968
     35 C          24.5541   74.1437    2.4540 C.3     1  UNL1        0.1723
     36 C          22.1668   73.7808    0.8599 C.3     1  UNL1        0.2706
     37 C          23.4142   73.1897    2.7993 C.3     1  UNL1        0.1830
     38 H          25.5373   75.7439   -0.1986 H       1  UNL1        0.2105
     39 H          23.8596   75.6117   -1.2349 H       1  UNL1        0.2106
     40 H          26.5206   74.1378    2.6288 H       1  UNL1        0.2106
     41 O          23.8123   74.1915    4.8824 O.co2   1  UNL1       -0.5466
     42 O          22.4976   72.3287    4.8583 O.co2   1  UNL1       -0.5466
     43 C          23.1749   73.1609    4.2738 C.2     1  UNL1        0.0799
@<TRIPOS>UNITY_ATOM_ATTR
2 1
charge -1
26 1
charge -1
41 1
charge -1
@<TRIPOS>BOND
     1     1     4    1
     2     1    24    1
     3     1     2    1
     4     1     3    2
     5    25    28    1
     6    25    24    1
     7    25    26    1
     8    25    27    2
     9     6    11    1
    10     6    12    1
    11    29    36    1
    12    29    37    1
    13     7     9    1
    14     7    13    1
    15     8    10    1
    16     8    14    1
    17     4     5    1
    18    28    36    1
    19    30    33    1
    20    30    38    1
    21    31    34    1
    22    31    39    1
    23    32    35    1
    24    32    40    1
    25    41    43   ar
    26    15    19    2
    27    42    43   ar
    28    16    22    2
    29    17    12    1
    30    17    19   ar
    31    17    20   ar
    32    18    19   ar
    33    18    22   ar
    34    18    23    1
    35     9    10    1
    36     9    11    1
    37    10    12    1
    38    11     5    1
    39    33    34    1
    40    33    35    1
    41    34    36    1
    42    35    37    1
    43    37    43    1
    44    20    21   ar
    45    21    22   ar
@<TRIPOS>MOLECULE
*****
 43 45 0 0 0
SMALL
GASTEIGER

@<TRIPOS>ATOM
      1 P          23.0093   71.3900   -2.2970 P.3     1  UNL1        0.2189
      2 O          22.7215   72.9813   -2.3584 O.co2   1  UNL1       -0.4371
      3 O          24.1288   70.9142   -3.1757 O.2     1  UNL1       -0.5170
      4 O          21.5626   70.7224   -2.5787 O.3     1  UNL1       -0.3112
      5 C          20.9002   71.0309   -3.7914 C.3     1  UNL1        0.1811
      6 O          18.8078   71.7863   -4.7017 O.3     1  UNL1       -0.3308
      7 O          17.5062   70.3433   -2.4181 O.3     1  UNL1       -0.3794
      8 O          17.1604   68.6088   -4.4937 O.3     1  UNL1       -0.3779
      9 C          18.6658   69.9850   -3.1701 C.3     1  UNL1        0.1713
     10 C          18.2668   69.4852   -4.5424 C.3     1  UNL1        0.1895
     11 C          19.4224   71.2633   -3.5042 C.3     1  UNL1        0.1764
     12 C          17.9548   70.7809   -5.2716 C.3     1  UNL1        0.2383
     13 H          17.0063   69.5426   -2.1929 H       1  UNL1        0.2105
     14 H          17.4097   67.7993   -4.0199 H       1  UNL1        0.2106
     15 O          16.0239   70.0720   -7.2070 O.2     1  UNL1       -0.2464
     16 O          19.0615   70.4743  -10.6502 O.2     1  UNL1       -0.2670
     17 N          18.2140   70.6926   -6.6808 N.ar    1  UNL1       -0.2551
     18 N          17.5389   70.2720   -8.9199 N.ar    1  UNL1       -0.2743
     19 C          17.1741   70.3277   -7.5683 C.ar    1  UNL1        0.3323
     20 C          19.4850   70.9674   -7.1708 C.ar    1  UNL1        0.0869
     21 C          19.8175   70.9102   -8.4619 C.ar    1  UNL1        0.0795
     22 C          18.7894   70.5358   -9.4550 C.ar    1  UNL1        0.2626
     23 H          16.8322   70.0182   -9.5567 H       1  UNL1        0.1734
     24 O          23.2319   71.1221   -0.7185 O.3     1  UNL1       -0.2703
     25 P          22.2009   71.1879    0.5250 P.3     1  UNL1        0.2208
     26 O          23.0893   70.6587    1.7704 O.co2   1  UNL1       -0.4371
     27 O          20.9250   70.4269    0.3080 O.2     1  UNL1       -0.5170
     28 O          22.0009   72.7634    0.8080 O.3     1  UNL1       -0.2858
     29 O          23.3402   73.7995    2.4638 O.3     1  UNL1       -0.3226
     30 O          20.3549   76.6035    1.9216 O.3     1  UNL1       -0.3794
     31 O          19.7099   73.7564    2.0333 O.3     1  UNL1       -0.3775
     32 O          22.9972   77.0487    0.7942 O.3     1  UNL1       -0.3792
     33 C          21.2509   75.5622    1.5331 C.3     1  UNL1        0.1718
     34 C          20.9760   74.3121    2.3692 C.3     1  UNL1        0.1968
     35 C          22.6802   76.0561    1.7681 C.3     1  UNL1        0.1723
     36 C          22.0588   73.2554    2.1456 C.3     1  UNL1        0.2706
     37 C          23.6894   74.9175    1.6506 C.3     1  UNL1        0.1830
     38 H          19.4402   76.3123    1.7811 H       1  UNL1        0.2105
     39 H          19.0181   74.4216    2.1725 H       1  UNL1        0.2106
     40 H          22.3621   77.7790    0.8583 H       1  UNL1        0.2106
     41 O          24.9287   76.5281    2.8218 O.co2   1  UNL1       -0.5466
     42 O          26.0475   74.6767    2.1008 O.co2   1  UNL1       -0.5466
     43 C          25.0181   75.3279    2.1970 C.2     1  UNL1        0.0799
@<TRIPOS>UNITY_ATOM_ATTR
2 1
charge -1
26 1
charge -1
41 1
charge -1
@<TRIPOS>BOND
     1     1     4    1
     2     1    24    1
     3     1     2    1
     4     1     3    2
     5    25    28    1
     6    25    24    1
     7    25    26    1
     8    25    27    2
     9     6    11    1
    10     6    12    1
    11    29    36    1
    12    29    37    1
    13     7     9    1
    14     7    13    1
    15     8    10    1
    16     8    14    1
    17     4     5    1
    18    28    36    1
    19    30    33    1
    20    30    38    1
    21    31    34    1
    22    31    39    1
    23    32    35    1
    24    32    40    1
    25    41    43   ar
    26    15    19    2
    27    42    43   ar
    28    16    22    2
    29    17    12    1
    30    17    19   ar
    31    17    20   ar
    32    18    19   ar
    33    18    22   ar
    34    18    23    1
    35     9    10    1
    36     9    11    1
    37    10    12    1
    38    11     5    1
    39    33    34    1
    40    33    35    1
    41    34    36    1
    42    35    37    1
    43    37    43    1
    44    20    21   ar
    45    21    22   ar
@<TRIPOS>MOLECULE
*****
 43 45 0 0 0
SMALL
GASTEIGER

@<TRIPOS>ATOM
      1 P          22.9353   71.4220   -2.3180 P.3     1  UNL1        0.2189
      2 O          22.5232   72.9190   -2.7740 O.co2   1  UNL1       -0.4371
      3 O          24.1923   70.8925   -2.9438 O.2     1  UNL1       -0.5170
      4 O          21.5973   70.5524   -2.5850 O.3     1  UNL1       -0.3112
      5 C          20.9116   70.7259   -3.8115 C.3     1  UNL1        0.1811
      6 O          18.8837   71.6507   -4.7116 O.3     1  UNL1       -0.3308
      7 O          17.4728   70.2742   -2.4520 O.3     1  UNL1       -0.3794
      8 O          17.0017   68.6032   -4.5547 O.3     1  UNL1       -0.3779
      9 C          18.6037   69.8415   -3.2085 C.3     1  UNL1        0.1713
     10 C          18.1709   69.3945   -4.5888 C.3     1  UNL1        0.1895
     11 C          19.4549   71.0644   -3.5219 C.3     1  UNL1        0.1764
     12 C          17.9587   70.7212   -5.2979 C.3     1  UNL1        0.2383
     13 H          16.9137   69.5100   -2.2397 H       1  UNL1        0.2105
     14 H          17.1886   67.7699   -4.0936 H       1  UNL1        0.2106
     15 O          16.0047   70.0859   -7.2356 O.2     1  UNL1       -0.2464
     16 O          19.0488   70.4214  -10.6802 O.2     1  UNL1       -0.2670
     17 N          18.2133   70.6357   -6.7081 N.ar    1  UNL1       -0.2551
     18 N          17.5229   70.2526   -8.9492 N.ar    1  UNL1       -0.2743
     19 C          17.1617   70.3092   -7.5967 C.ar    1  UNL1        0.3323
     20 C          19.4915   70.8753   -7.1979 C.ar    1  UNL1        0.0869
     21 C          19.8204   70.8177   -8.4899 C.ar    1  UNL1        0.0795
     22 C          18.7802   70.4822   -9.4842 C.ar    1  UNL1        0.2626
     23 H          16.8080   70.0251   -9.5868 H       1  UNL1        0.1734
     24 O          22.9808   71.5331   -0.7061 O.3     1  UNL1       -0.2703
     25 P          21.7919   71.6281    0.3853 P.3     1  UNL1        0.2208
     26 O          21.6425   70.1018    0.9033 O.co2   1  UNL1       -0.4371
     27 O          20.5207   72.2302   -0.1397 O.2     1  UNL1       -0.5170
     28 O          22.4426   72.4192    1.6316 O.3     1  UNL1       -0.2858
     29 O          22.6305   74.7283    1.1398 O.3     1  UNL1       -0.3226
     30 O          24.4419   74.5081    4.8463 O.3     1  UNL1       -0.3794
     31 O          24.9553   72.4639    2.8234 O.3     1  UNL1       -0.3775
     32 O          21.7582   75.5971    4.5961 O.3     1  UNL1       -0.3792
     33 C          23.5151   74.1399    3.8249 C.3     1  UNL1        0.1718
     34 C          24.2786   73.6914    2.5785 C.3     1  UNL1        0.1968
     35 C          22.6502   75.3620    3.5082 C.3     1  UNL1        0.1723
     36 C          23.3307   73.5095    1.3922 C.3     1  UNL1        0.2706
     37 C          21.8278   75.1491    2.2405 C.3     1  UNL1        0.1830
     38 H          25.0026   73.7468    5.0641 H       1  UNL1        0.2105
     39 H          25.5583   72.5720    3.5751 H       1  UNL1        0.2106
     40 H          22.2690   75.7340    5.4093 H       1  UNL1        0.2106
     41 O          22.2315   77.2792    1.3453 O.co2   1  UNL1       -0.5466
     42 O          20.0585   76.7107    1.7380 O.co2   1  UNL1       -0.5466
     43 C          21.2499   76.4404    1.7600 C.2     1  UNL1        0.0799
@<TRIPOS>UNITY_ATOM_ATTR
2 1
charge -1
26 1
charge -1
41 1
charge -1
@<TRIPOS>BOND
     1     1     4    1
     2     1    24    1
     3     1     2    1
     4     1     3    2
     5    25    28    1
     6    25    24    1
     7    25    26    1
     8    25    27    2
     9     6    11    1
    10     6    12    1
    11    29    36    1
    12    29    37    1
    13     7     9    1
    14     7    13    1
    15     8    10    1
    16     8    14    1
    17     4     5    1
    18    28    36    1
    19    30    33    1
    20    30    38    1
    21    31    34    1
    22    31    39    1
    23    32    35    1
    24    32    40    1
    25    41    43   ar
    26    15    19    2
    27    42    43   ar
    28    16    22    2
    29    17    12    1
    30    17    19   ar
    31    17    20   ar
    32    18    19   ar
    33    18    22   ar
    34    18    23    1
    35     9    10    1
    36     9    11    1
    37    10    12    1
    38    11     5    1
    39    33    34    1
    40    33    35    1
    41    34    36    1
    42    35    37    1
    43    37    43    1
    44    20    21   ar
    45    21    22   ar
@<TRIPOS>MOLECULE
*****
 43 45 0 0 0
SMALL
GASTEIGER

@<TRIPOS>ATOM
      1 P          21.0960   72.7433   -4.4487 P.3     1  UNL1        0.2189
      2 O          20.6057   74.0193   -3.5824 O.co2   1  UNL1       -0.4371
      3 O          21.9221   73.0771   -5.6562 O.2     1  UNL1       -0.5170
      4 O          19.7322   71.9213   -4.7357 O.3     1  UNL1       -0.3112
      5 C          19.0907   71.2761   -3.6510 C.3     1  UNL1        0.1811
      6 O          17.3267   71.7654   -5.2088 O.3     1  UNL1       -0.3308
      7 O          15.5159   70.2749   -3.3404 O.3     1  UNL1       -0.3794
      8 O          15.9958   68.4374   -5.2972 O.3     1  UNL1       -0.3779
      9 C          16.8800   70.0173   -3.6741 C.3     1  UNL1        0.1713
     10 C          16.9768   69.4265   -5.0647 C.3     1  UNL1        0.1895
     11 C          17.5823   71.3570   -3.8475 C.3     1  UNL1        0.1764
     12 C          16.7903   70.6527   -5.9420 C.3     1  UNL1        0.2383
     13 H          15.0465   69.4336   -3.2246 H       1  UNL1        0.2105
     14 H          16.1582   67.6779   -4.7152 H       1  UNL1        0.2106
     15 O          15.5484   70.8247   -8.4727 O.2     1  UNL1       -0.2464
     16 O          19.5475   70.2097  -10.6800 O.2     1  UNL1       -0.2670
     17 N          17.4832   70.5410   -7.1943 N.ar    1  UNL1       -0.2551
     18 N          17.5412   70.5172   -9.5696 N.ar    1  UNL1       -0.2743
     19 C          16.7655   70.6417   -8.4095 C.ar    1  UNL1        0.3323
     20 C          18.8575   70.3360   -7.2107 C.ar    1  UNL1        0.0869
     21 C          19.5832   70.2194   -8.3244 C.ar    1  UNL1        0.0795
     22 C          18.9098   70.3120   -9.6364 C.ar    1  UNL1        0.2626
     23 H          17.0633   70.5818  -10.4280 H       1  UNL1        0.1734
     24 O          21.8485   71.8266   -3.3505 O.3     1  UNL1       -0.2703
     25 P          23.3125   71.9622   -2.6782 P.3     1  UNL1        0.2208
     26 O          23.7998   73.4331   -3.1467 O.co2   1  UNL1       -0.4371
     27 O          24.2597   70.8538   -3.0363 O.2     1  UNL1       -0.5170
     28 O          23.0249   72.1127   -1.0980 O.3     1  UNL1       -0.2858
     29 O          23.7457   70.6134    0.5877 O.3     1  UNL1       -0.3226
     30 O          20.4066   72.3034    2.3377 O.3     1  UNL1       -0.3794
     31 O          20.3741   71.5385   -0.4816 O.3     1  UNL1       -0.3775
     32 O          23.0666   73.1132    3.1861 O.3     1  UNL1       -0.3792
     33 C          21.5639   72.2691    1.5025 C.3     1  UNL1        0.1718
     34 C          21.3969   71.1815    0.4410 C.3     1  UNL1        0.1968
     35 C          22.7763   71.9683    2.3866 C.3     1  UNL1        0.1723
     36 C          22.7022   70.9587   -0.3241 C.3     1  UNL1        0.2706
     37 C          24.0072   71.6335    1.5490 C.3     1  UNL1        0.1830
     38 H          19.6234   72.4930    1.7975 H       1  UNL1        0.2105
     39 H          19.5431   71.6816   -0.0029 H       1  UNL1        0.2106
     40 H          22.2911   73.3370    3.7241 H       1  UNL1        0.2106
     41 O          26.0166   71.9536    2.7157 O.co2   1  UNL1       -0.5466
     42 O          25.1092   69.8623    2.7614 O.co2   1  UNL1       -0.5466
     43 C          25.0777   71.0284    2.3976 C.2     1  UNL1        0.0799
@<TRIPOS>UNITY_ATOM_ATTR
2 1
charge -1
26 1
charge -1
41 1
charge -1
@<TRIPOS>BOND
     1     1     4    1
     2     1    24    1
     3     1     2    1
     4     1     3    2
     5    25    28    1
     6    25    24    1
     7    25    26    1
     8    25    27    2
     9     6    11    1
    10     6    12    1
    11    29    36    1
    12    29    37    1
    13     7     9    1
    14     7    13    1
    15     8    10    1
    16     8    14    1
    17     4     5    1
    18    28    36    1
    19    30    33    1
    20    30    38    1
    21    31    34    1
    22    31    39    1
    23    32    35    1
    24    32    40    1
    25    41    43   ar
    26    15    19    2
    27    42    43   ar
    28    16    22    2
    29    17    12    1
    30    17    19   ar
    31    17    20   ar
    32    18    19   ar
    33    18    22   ar
    34    18    23    1
    35     9    10    1
    36     9    11    1
    37    10    12    1
    38    11     5    1
    39    33    34    1
    40    33    35    1
    41    34    36    1
    42    35    37    1
    43    37    43    1
    44    20    21   ar
    45    21    22   ar
@<TRIPOS>MOLECULE
*****
 43 45 0 0 0
SMALL
GASTEIGER

@<TRIPOS>ATOM
      1 P          22.7152   73.0429   -3.9076 P.3     1  UNL1        0.2189
      2 O          24.1706   72.5321   -4.3972 O.co2   1  UNL1       -0.4371
      3 O          22.6218   74.5139   -3.6261 O.2     1  UNL1       -0.5170
      4 O          22.3574   72.0663   -2.6682 O.3     1  UNL1       -0.3112
      5 C          21.4140   71.0309   -2.8739 C.3     1  UNL1        0.1811
      6 O          20.7202   70.5779   -0.6175 O.3     1  UNL1       -0.3308
      7 O          18.6169   72.6727   -1.0412 O.3     1  UNL1       -0.3794
      8 O          20.5132   74.0130    0.3883 O.3     1  UNL1       -0.3779
      9 C          19.9575   72.6264   -1.5302 C.3     1  UNL1        0.1713
     10 C          20.9336   72.9287   -0.4130 C.3     1  UNL1        0.1895
     11 C          20.2879   71.1768   -1.8584 C.3     1  UNL1        0.1764
     12 C          20.9588   71.6142    0.3481 C.3     1  UNL1        0.2383
     13 H          18.3828   73.5892   -0.8246 H       1  UNL1        0.2105
     14 H          20.5144   74.8261   -0.1416 H       1  UNL1        0.2106
     15 O          21.4408   71.9639    3.1089 O.2     1  UNL1       -0.2464
     16 O          25.8438   70.6670    2.6905 O.2     1  UNL1       -0.2670
     17 N          22.2219   71.3751    0.9872 N.ar    1  UNL1       -0.2551
     18 N          23.6335   71.3186    2.8977 N.ar    1  UNL1       -0.2743
     19 C          22.3583   71.5815    2.3804 C.ar    1  UNL1        0.3323
     20 C          23.3074   70.9400    0.2368 C.ar    1  UNL1        0.0869
     21 C          24.5169   70.6936    0.7441 C.ar    1  UNL1        0.0795
     22 C          24.7439   70.8851    2.1916 C.ar    1  UNL1        0.2626
     23 H          23.7535   71.4570    3.8651 H       1  UNL1        0.1734
     24 O          21.7333   72.5179   -5.0793 O.3     1  UNL1       -0.2703
     25 P          20.9782   73.3132   -6.2672 P.3     1  UNL1        0.2208
     26 O          21.9851   73.1445   -7.5234 O.co2   1  UNL1       -0.4371
     27 O          20.6368   74.7369   -5.9351 O.2     1  UNL1       -0.5170
     28 O          19.7086   72.3888   -6.6360 O.3     1  UNL1       -0.2858
     29 O          19.2130   70.2007   -5.8773 O.3     1  UNL1       -0.3226
     30 O          17.4529   70.2132   -9.6149 O.3     1  UNL1       -0.3794
     31 O          20.0854   71.4145   -9.2137 O.3     1  UNL1       -0.3775
     32 O          15.8097   70.4382   -7.2274 O.3     1  UNL1       -0.3792
     33 C          17.8969   70.7789   -8.3817 C.3     1  UNL1        0.1718
     34 C          19.4109   70.6072   -8.2556 C.3     1  UNL1        0.1968
     35 C          17.1819   70.0493   -7.2422 C.3     1  UNL1        0.1723
     36 C          19.8903   70.9911   -6.8550 C.3     1  UNL1        0.2706
     37 C          17.7997   70.3891   -5.8888 C.3     1  UNL1        0.1830
     38 H          17.8941   70.6612  -10.3537 H       1  UNL1        0.2105
     39 H          19.7858   71.1765  -10.1048 H       1  UNL1        0.2106
     40 H          15.4047   70.2276   -8.0832 H       1  UNL1        0.2106
     41 O          18.2894   69.2414   -3.9028 O.co2   1  UNL1       -0.5466
     42 O          16.2239   68.9135   -4.8113 O.co2   1  UNL1       -0.5466
     43 C          17.3262   69.4402   -4.8364 C.2     1  UNL1        0.0799
@<TRIPOS>UNITY_ATOM_ATTR
2 1
charge -1
26 1
charge -1
41 1
charge -1
@<TRIPOS>BOND
     1     1     4    1
     2     1    24    1
     3     1     2    1
     4     1     3    2
     5    25    28    1
     6    25    24    1
     7    25    26    1
     8    25    27    2
     9     6    11    1
    10     6    12    1
    11    29    36    1
    12    29    37    1
    13     7     9    1
    14     7    13    1
    15     8    10    1
    16     8    14    1
    17     4     5    1
    18    28    36    1
    19    30    33    1
    20    30    38    1
    21    31    34    1
    22    31    39    1
    23    32    35    1
    24    32    40    1
    25    41    43   ar
    26    15    19    2
    27    42    43   ar
    28    16    22    2
    29    17    12    1
    30    17    19   ar
    31    17    20   ar
    32    18    19   ar
    33    18    22   ar
    34    18    23    1
    35     9    10    1
    36     9    11    1
    37    10    12    1
    38    11     5    1
    39    33    34    1
    40    33    35    1
    41    34    36    1
    42    35    37    1
    43    37    43    1
    44    20    21   ar
    45    21    22   ar
@<TRIPOS>MOLECULE
*****
 43 45 0 0 0
SMALL
GASTEIGER

@<TRIPOS>ATOM
      1 P          22.6274   71.1907   -3.2225 P.3     1  UNL1        0.2189
      2 O          22.9975   72.7660   -3.2356 O.co2   1  UNL1       -0.4371
      3 O          23.8049   70.2627   -3.2860 O.2     1  UNL1       -0.5170
      4 O          21.5457   71.0358   -4.4158 O.3     1  UNL1       -0.3112
      5 C          21.5784   71.9657   -5.4829 C.3     1  UNL1        0.1811
      6 O          20.2434   70.1701   -6.3610 O.3     1  UNL1       -0.3308
      7 O          20.2301   71.6916   -8.9449 O.3     1  UNL1       -0.3794
      8 O          17.7809   72.2748   -7.8973 O.3     1  UNL1       -0.3779
      9 C          20.1931   72.1849   -7.6055 C.3     1  UNL1        0.1713
     10 C          18.8243   71.9563   -7.0004 C.3     1  UNL1        0.1895
     11 C          21.0742   71.2856   -6.7492 C.3     1  UNL1        0.1764
     12 C          18.8725   70.4763   -6.6612 C.3     1  UNL1        0.2383
     13 H          19.6742   72.2504   -9.5110 H       1  UNL1        0.2105
     14 H          17.7924   73.2277   -8.0814 H       1  UNL1        0.2106
     15 O          16.1692   69.6722   -6.8094 O.2     1  UNL1       -0.2464
     16 O          15.8562   69.2418   -2.2311 O.2     1  UNL1       -0.2670
     17 N          18.0609   70.1480   -5.5235 N.ar    1  UNL1       -0.2551
     18 N          16.0156   69.4595   -4.5290 N.ar    1  UNL1       -0.2743
     19 C          16.7139   69.7556   -5.7070 C.ar    1  UNL1        0.3323
     20 C          18.6000   70.2147   -4.2445 C.ar    1  UNL1        0.0869
     21 C          17.9220   69.9294   -3.1311 C.ar    1  UNL1        0.0795
     22 C          16.5083   69.5119   -3.2351 C.ar    1  UNL1        0.2626
     23 H          15.0754   69.1859   -4.6312 H       1  UNL1        0.1734
     24 O          21.7233   71.0414   -1.8909 O.3     1  UNL1       -0.2703
     25 P          21.8884   71.6870   -0.4180 P.3     1  UNL1        0.2208
     26 O          23.4775   71.9789   -0.3181 O.co2   1  UNL1       -0.4371
     27 O          21.3452   70.8349    0.6923 O.2     1  UNL1       -0.5170
     28 O          21.2126   73.1473   -0.5331 O.3     1  UNL1       -0.2858
     29 O          21.4613   75.2206   -1.6506 O.3     1  UNL1       -0.3226
     30 O          21.3230   76.4083    2.3040 O.3     1  UNL1       -0.3794
     31 O          22.8589   74.0506    1.5187 O.3     1  UNL1       -0.3775
     32 O          19.0098   76.7880    0.5846 O.3     1  UNL1       -0.3792
     33 C          21.0124   75.5870    1.1783 C.3     1  UNL1        0.1718
     34 C          22.3000   74.9911    0.6088 C.3     1  UNL1        0.1968
     35 C          20.3221   76.4627    0.1302 C.3     1  UNL1        0.1723
     36 C          22.0367   74.2954   -0.7274 C.3     1  UNL1        0.2706
     37 C          20.2095   75.7427   -1.2105 C.3     1  UNL1        0.1830
     38 H          21.7625   75.8731    2.9834 H       1  UNL1        0.2105
     39 H          23.0283   74.4852    2.3689 H       1  UNL1        0.2106
     40 H          19.0674   77.2466    1.4374 H       1  UNL1        0.2106
     41 O          18.5035   76.8994   -2.3299 O.co2   1  UNL1       -0.5466
     42 O          20.6385   77.2362   -3.0563 O.co2   1  UNL1       -0.5466
     43 C          19.8445   76.7002   -2.2978 C.2     1  UNL1        0.0799
@<TRIPOS>UNITY_ATOM_ATTR
2 1
charge -1
26 1
charge -1
41 1
charge -1
@<TRIPOS>BOND
     1     1     4    1
     2     1    24    1
     3     1     2    1
     4     1     3    2
     5    25    28    1
     6    25    24    1
     7    25    26    1
     8    25    27    2
     9     6    11    1
    10     6    12    1
    11    29    36    1
    12    29    37    1
    13     7     9    1
    14     7    13    1
    15     8    10    1
    16     8    14    1
    17     4     5    1
    18    28    36    1
    19    30    33    1
    20    30    38    1
    21    31    34    1
    22    31    39    1
    23    32    35    1
    24    32    40    1
    25    41    43   ar
    26    15    19    2
    27    42    43   ar
    28    16    22    2
    29    17    12    1
    30    17    19   ar
    31    17    20   ar
    32    18    19   ar
    33    18    22   ar
    34    18    23    1
    35     9    10    1
    36     9    11    1
    37    10    12    1
    38    11     5    1
    39    33    34    1
    40    33    35    1
    41    34    36    1
    42    35    37    1
    43    37    43    1
    44    20    21   ar
    45    21    22   ar
@<TRIPOS>MOLECULE
*****
 43 45 0 0 0
SMALL
GASTEIGER

@<TRIPOS>ATOM
      1 P          20.5423   73.6621   -3.8986 P.3     1  UNL1        0.2189
      2 O          20.3325   73.5345   -2.2991 O.co2   1  UNL1       -0.4371
      3 O          19.7033   74.7122   -4.5659 O.2     1  UNL1       -0.5170
      4 O          20.3373   72.1509   -4.4391 O.3     1  UNL1       -0.3112
      5 C          19.6563   71.2241   -3.6134 C.3     1  UNL1        0.1811
      6 O          17.8476   71.9997   -4.9936 O.3     1  UNL1       -0.3308
      7 O          16.0186   70.7010   -3.0038 O.3     1  UNL1       -0.3794
      8 O          16.0718   68.8854   -5.0378 O.3     1  UNL1       -0.3779
      9 C          17.3006   70.2746   -3.4653 C.3     1  UNL1        0.1713
     10 C          17.1951   69.7253   -4.8723 C.3     1  UNL1        0.1895
     11 C          18.1618   71.5133   -3.6707 C.3     1  UNL1        0.1764
     12 C          17.1028   70.9954   -5.7006 C.3     1  UNL1        0.2383
     13 H          15.4504   69.9266   -2.8654 H       1  UNL1        0.2105
     14 H          16.1786   68.0911   -4.4904 H       1  UNL1        0.2106
     15 O          15.6082   70.3295   -8.0026 O.2     1  UNL1       -0.2464
     16 O          19.3571   70.4092  -10.6828 O.2     1  UNL1       -0.2670
     17 N          17.6630   70.8358   -7.0127 N.ar    1  UNL1       -0.2551
     18 N          17.4769   70.3688   -9.3351 N.ar    1  UNL1       -0.2743
     19 C          16.8247   70.5001   -8.1021 C.ar    1  UNL1        0.3323
     20 C          19.0269   71.0130   -7.2108 C.ar    1  UNL1        0.0869
     21 C          19.6342   70.8846   -8.3921 C.ar    1  UNL1        0.0795
     22 C          18.8302   70.5345   -9.5814 C.ar    1  UNL1        0.2626
     23 H          16.9143   70.1335  -10.1081 H       1  UNL1        0.1734
     24 O          22.1371   73.8850   -4.0388 O.3     1  UNL1       -0.2703
     25 P          23.3649   73.3765   -3.1181 P.3     1  UNL1        0.2208
     26 O          24.3479   74.6616   -3.0698 O.co2   1  UNL1       -0.4371
     27 O          24.0187   72.1158   -3.6050 O.2     1  UNL1       -0.5170
     28 O          22.7482   73.2794   -1.6306 O.3     1  UNL1       -0.2858
     29 O          23.3984   73.8876    0.5640 O.3     1  UNL1       -0.3226
     30 O          21.9101   70.0789    1.1531 O.3     1  UNL1       -0.3794
     31 O          23.5906   70.6704   -1.1621 O.3     1  UNL1       -0.3775
     32 O          20.3445   72.3962    1.9469 O.3     1  UNL1       -0.3792
     33 C          21.9990   71.3619    0.5334 C.3     1  UNL1        0.1718
     34 C          23.3959   71.5482   -0.0593 C.3     1  UNL1        0.1968
     35 C          21.7283   72.4231    1.6022 C.3     1  UNL1        0.1723
     36 C          23.6040   72.9893   -0.5270 C.3     1  UNL1        0.2706
     37 C          22.0790   73.8210    1.1007 C.3     1  UNL1        0.1830
     38 H          22.0785   69.3883    0.4929 H       1  UNL1        0.2105
     39 H          23.4598   69.7542   -0.8726 H       1  UNL1        0.2106
     40 H          20.1083   71.5118    2.2675 H       1  UNL1        0.2106
     41 O          23.3909   74.9050    2.7148 O.co2   1  UNL1       -0.5466
     42 O          21.1681   75.4111    2.6701 O.co2   1  UNL1       -0.5466
     43 C          22.1280   74.7941    2.2333 C.2     1  UNL1        0.0799
@<TRIPOS>UNITY_ATOM_ATTR
2 1
charge -1
26 1
charge -1
41 1
charge -1
@<TRIPOS>BOND
     1     1     4    1
     2     1    24    1
     3     1     2    1
     4     1     3    2
     5    25    28    1
     6    25    24    1
     7    25    26    1
     8    25    27    2
     9     6    11    1
    10     6    12    1
    11    29    36    1
    12    29    37    1
    13     7     9    1
    14     7    13    1
    15     8    10    1
    16     8    14    1
    17     4     5    1
    18    28    36    1
    19    30    33    1
    20    30    38    1
    21    31    34    1
    22    31    39    1
    23    32    35    1
    24    32    40    1
    25    41    43   ar
    26    15    19    2
    27    42    43   ar
    28    16    22    2
    29    17    12    1
    30    17    19   ar
    31    17    20   ar
    32    18    19   ar
    33    18    22   ar
    34    18    23    1
    35     9    10    1
    36     9    11    1
    37    10    12    1
    38    11     5    1
    39    33    34    1
    40    33    35    1
    41    34    36    1
    42    35    37    1
    43    37    43    1
    44    20    21   ar
    45    21    22   ar
@<TRIPOS>MOLECULE
*****
 43 45 0 0 0
SMALL
GASTEIGER

@<TRIPOS>ATOM
      1 P          21.0892   71.9056   -5.2733 P.3     1  UNL1        0.2189
      2 O          20.6968   70.6874   -4.2829 O.co2   1  UNL1       -0.4371
      3 O          20.2554   73.1433   -5.1166 O.2     1  UNL1       -0.5170
      4 O          21.0752   71.2306   -6.7438 O.3     1  UNL1       -0.3112
      5 C          20.1793   71.7414   -7.7137 C.3     1  UNL1        0.1811
      6 O          18.8206   69.8068   -7.2792 O.3     1  UNL1       -0.3308
      7 O          17.9793   69.9826  -10.1520 O.3     1  UNL1       -0.3794
      8 O          15.8605   71.0917   -8.8417 O.3     1  UNL1       -0.3779
      9 C          18.2606   71.0331   -9.2269 C.3     1  UNL1        0.1713
     10 C          17.1304   71.1690   -8.2286 C.3     1  UNL1        0.1895
     11 C          19.4150   70.5831   -8.3419 C.3     1  UNL1        0.1764
     12 C          17.3980   70.0057   -7.2890 C.3     1  UNL1        0.2383
     13 H          17.2448   70.2471  -10.7284 H       1  UNL1        0.2105
     14 H          15.7383   71.8543   -9.4295 H       1  UNL1        0.2106
     15 O          16.3337   68.0536   -5.5473 O.2     1  UNL1       -0.2464
     16 O          15.7275   71.1329   -2.1717 O.2     1  UNL1       -0.2670
     17 N          16.9542   70.2699   -5.9495 N.ar    1  UNL1       -0.2551
     18 N          16.0319   69.5893   -3.8681 N.ar    1  UNL1       -0.2743
     19 C          16.4353   69.2184   -5.1576 C.ar    1  UNL1        0.3323
     20 C          17.0366   71.5572   -5.4328 C.ar    1  UNL1        0.0869
     21 C          16.6482   71.8953   -4.2017 C.ar    1  UNL1        0.0795
     22 C          16.0936   70.8559   -3.3099 C.ar    1  UNL1        0.2626
     23 H          15.6653   68.8747   -3.2987 H       1  UNL1        0.1734
     24 O          22.6658   72.1147   -4.9845 O.3     1  UNL1       -0.2703
     25 P          23.4922   72.1710   -3.5961 P.3     1  UNL1        0.2208
     26 O          24.5227   73.3975   -3.8285 O.co2   1  UNL1       -0.4371
     27 O          24.1487   70.8750   -3.2173 O.2     1  UNL1       -0.5170
     28 O          22.4345   72.7275   -2.5125 O.3     1  UNL1       -0.2858
     29 O          22.3305   74.5773   -1.0373 O.3     1  UNL1       -0.3226
     30 O          20.8695   71.5269    1.3351 O.3     1  UNL1       -0.3794
     31 O          23.1769   71.0783   -0.3995 O.3     1  UNL1       -0.3775
     32 O          19.0509   73.4873    0.1948 O.3     1  UNL1       -0.3792
     33 C          21.1050   72.2305    0.1155 C.3     1  UNL1        0.1718
     34 C          22.6103   72.3536   -0.1219 C.3     1  UNL1        0.1968
     35 C          20.4706   73.6176    0.2398 C.3     1  UNL1        0.1723
     36 C          22.9046   73.2945   -1.2910 C.3     1  UNL1        0.2706
     37 C          20.9123   74.5360   -0.8960 C.3     1  UNL1        0.1830
     38 H          21.2639   70.6422    1.2796 H       1  UNL1        0.2105
     39 H          22.9937   70.4760    0.3382 H       1  UNL1        0.2106
     40 H          18.7567   72.9050    0.9126 H       1  UNL1        0.2106
     41 O          20.2788   76.1118    0.7217 O.co2   1  UNL1       -0.5466
     42 O          20.5384   76.8623   -1.4157 O.co2   1  UNL1       -0.5466
     43 C          20.5636   75.9573   -0.5951 C.2     1  UNL1        0.0799
@<TRIPOS>UNITY_ATOM_ATTR
2 1
charge -1
26 1
charge -1
41 1
charge -1
@<TRIPOS>BOND
     1     1     4    1
     2     1    24    1
     3     1     2    1
     4     1     3    2
     5    25    28    1
     6    25    24    1
     7    25    26    1
     8    25    27    2
     9     6    11    1
    10     6    12    1
    11    29    36    1
    12    29    37    1
    13     7     9    1
    14     7    13    1
    15     8    10    1
    16     8    14    1
    17     4     5    1
    18    28    36    1
    19    30    33    1
    20    30    38    1
    21    31    34    1
    22    31    39    1
    23    32    35    1
    24    32    40    1
    25    41    43   ar
    26    15    19    2
    27    42    43   ar
    28    16    22    2
    29    17    12    1
    30    17    19   ar
    31    17    20   ar
    32    18    19   ar
    33    18    22   ar
    34    18    23    1
    35     9    10    1
    36     9    11    1
    37    10    12    1
    38    11     5    1
    39    33    34    1
    40    33    35    1
    41    34    36    1
    42    35    37    1
    43    37    43    1
    44    20    21   ar
    45    21    22   ar
@<TRIPOS>MOLECULE
*****
 43 45 0 0 0
SMALL
GASTEIGER

@<TRIPOS>ATOM
      1 P          20.1233   71.4796   -2.1010 P.3     1  UNL1        0.2189
      2 O          19.2917   70.2459   -1.4643 O.co2   1  UNL1       -0.4371
      3 O          20.0161   72.7723   -1.3464 O.2     1  UNL1       -0.5170
      4 O          19.6342   71.5233   -3.6427 O.3     1  UNL1       -0.3112
      5 C          18.8422   72.6163   -4.0700 C.3     1  UNL1        0.1811
      6 O          17.0117   72.1775   -5.5648 O.3     1  UNL1       -0.3308
      7 O          15.7938   70.6121   -3.3159 O.3     1  UNL1       -0.3794
      8 O          16.8451   68.6581   -4.9011 O.3     1  UNL1       -0.3779
      9 C          17.1663   70.7408   -3.6879 C.3     1  UNL1        0.1713
     10 C          17.4482   69.9347   -4.9381 C.3     1  UNL1        0.1895
     11 C          17.3902   72.1671   -4.1713 C.3     1  UNL1        0.1764
     12 C          16.8680   70.8242   -6.0244 C.3     1  UNL1        0.2383
     13 H          15.6265   69.7087   -3.0036 H       1  UNL1        0.2105
     14 H          17.2488   68.1303   -4.1938 H       1  UNL1        0.2106
     15 O          15.5906   70.6714   -8.5387 O.2     1  UNL1       -0.2464
     16 O          19.6092   70.2736  -10.7605 O.2     1  UNL1       -0.2670
     17 N          17.5563   70.6806   -7.2760 N.ar    1  UNL1       -0.2551
     18 N          17.5933   70.4724   -9.6428 N.ar    1  UNL1       -0.2743
     19 C          16.8204   70.6133   -8.4827 C.ar    1  UNL1        0.3323
     20 C          18.9439   70.6095   -7.3003 C.ar    1  UNL1        0.0869
     21 C          19.6667   70.4753   -8.4140 C.ar    1  UNL1        0.0795
     22 C          18.9747   70.3966   -9.7172 C.ar    1  UNL1        0.2626
     23 H          17.1030   70.4213  -10.4950 H       1  UNL1        0.1734
     24 O          21.6231   70.8873   -2.2122 O.3     1  UNL1       -0.2703
     25 P          23.0616   71.6232   -2.1588 P.3     1  UNL1        0.2208
     26 O          22.7608   73.0714   -2.8165 O.co2   1  UNL1       -0.4371
     27 O          24.1692   70.8594   -2.8251 O.2     1  UNL1       -0.5170
     28 O          23.3069   71.9296   -0.5941 O.3     1  UNL1       -0.2858
     29 O          24.7331   70.9268    1.0088 O.3     1  UNL1       -0.3226
     30 O          21.4284   71.8740    3.2999 O.3     1  UNL1       -0.3794
     31 O          21.1018   70.7500    0.6234 O.3     1  UNL1       -0.3775
     32 O          23.8433   73.4814    3.4876 O.3     1  UNL1       -0.3792
     33 C          22.3701   72.0399    2.2400 C.3     1  UNL1        0.1718
     34 C          22.3361   70.8129    1.3285 C.3     1  UNL1        0.1968
     35 C          23.7588   72.2023    2.8622 C.3     1  UNL1        0.1723
     36 C          23.4848   70.8487    0.3196 C.3     1  UNL1        0.2706
     37 C          24.8571   72.1014    1.8077 C.3     1  UNL1        0.1830
     38 H          20.5383   71.7689    2.9284 H       1  UNL1        0.2105
     39 H          20.3684   70.7272    1.2574 H       1  UNL1        0.2106
     40 H          23.1495   73.5586    4.1610 H       1  UNL1        0.2106
     41 O          26.5852   73.0791    3.0564 O.co2   1  UNL1       -0.5466
     42 O          26.8529   70.9009    2.4376 O.co2   1  UNL1       -0.5466
     43 C          26.1952   71.9305    2.4500 C.2     1  UNL1        0.0799
@<TRIPOS>UNITY_ATOM_ATTR
2 1
charge -1
26 1
charge -1
41 1
charge -1
@<TRIPOS>BOND
     1     1     4    1
     2     1    24    1
     3     1     2    1
     4     1     3    2
     5    25    28    1
     6    25    24    1
     7    25    26    1
     8    25    27    2
     9     6    11    1
    10     6    12    1
    11    29    36    1
    12    29    37    1
    13     7     9    1
    14     7    13    1
    15     8    10    1
    16     8    14    1
    17     4     5    1
    18    28    36    1
    19    30    33    1
    20    30    38    1
    21    31    34    1
    22    31    39    1
    23    32    35    1
    24    32    40    1
    25    41    43   ar
    26    15    19    2
    27    42    43   ar
    28    16    22    2
    29    17    12    1
    30    17    19   ar
    31    17    20   ar
    32    18    19   ar
    33    18    22   ar
    34    18    23    1
    35     9    10    1
    36     9    11    1
    37    10    12    1
    38    11     5    1
    39    33    34    1
    40    33    35    1
    41    34    36    1
    42    35    37    1
    43    37    43    1
    44    20    21   ar
    45    21    22   ar
@<TRIPOS>MOLECULE
*****
 43 45 0 0 0
SMALL
GASTEIGER

@<TRIPOS>ATOM
      1 P          22.6866   71.9626   -2.6308 P.3     1  UNL1        0.2189
      2 O          22.4819   73.5013   -2.1732 O.co2   1  UNL1       -0.4371
      3 O          24.0160   71.6595   -3.2576 O.2     1  UNL1       -0.5170
      4 O          21.3904   71.6546   -3.5489 O.3     1  UNL1       -0.3112
      5 C          20.6922   70.4396   -3.3472 C.3     1  UNL1        0.1811
      6 O          18.7464   71.4357   -4.3467 O.3     1  UNL1       -0.3308
      7 O          17.1466   69.8470   -2.3697 O.3     1  UNL1       -0.3794
      8 O          16.8988   68.3785   -4.6540 O.3     1  UNL1       -0.3779
      9 C          18.3496   69.4922   -3.0519 C.3     1  UNL1        0.1713
     10 C          18.0553   69.1748   -4.5027 C.3     1  UNL1        0.1895
     11 C          19.2103   70.7429   -3.1676 C.3     1  UNL1        0.1764
     12 C          17.8934   70.5611   -5.1023 C.3     1  UNL1        0.2383
     13 H          16.5803   69.0637   -2.2837 H       1  UNL1        0.2105
     14 H          17.0523   67.5065   -4.2566 H       1  UNL1        0.2106
     15 O          20.4810   69.9496   -6.0545 O.2     1  UNL1       -0.2464
     16 O          19.2685   70.7805  -10.4229 O.2     1  UNL1       -0.2670
     17 N          18.2813   70.6095   -6.4836 N.ar    1  UNL1       -0.2551
     18 N          19.8749   70.3650   -8.2292 N.ar    1  UNL1       -0.2743
     19 C          19.6067   70.2834   -6.8564 C.ar    1  UNL1        0.3323
     20 C          17.3541   70.9747   -7.4521 C.ar    1  UNL1        0.0869
     21 C          17.6245   71.0478   -8.7568 C.ar    1  UNL1        0.0795
     22 C          18.9864   70.7238   -9.2298 C.ar    1  UNL1        0.2626
     23 H          20.7916   70.1445   -8.5127 H       1  UNL1        0.1734
     24 O          22.3769   71.1368   -1.2762 O.3     1  UNL1       -0.2703
     25 P          21.4594   71.5027    0.0036 P.3     1  UNL1        0.2208
     26 O          21.5535   70.1710    0.9190 O.co2   1  UNL1       -0.4371
     27 O          20.0586   71.9181   -0.3415 O.2     1  UNL1       -0.5170
     28 O          22.3071   72.6126    0.8111 O.3     1  UNL1       -0.2858
     29 O          24.4409   73.5256    0.3392 O.3     1  UNL1       -0.3226
     30 O          24.3724   73.6389    4.4684 O.3     1  UNL1       -0.3794
     31 O          23.3520   71.3075    3.0339 O.3     1  UNL1       -0.3775
     32 O          23.9892   76.0788    2.9352 O.3     1  UNL1       -0.3792
     33 C          23.8171   73.6856    3.1541 C.3     1  UNL1        0.1718
     34 C          24.0924   72.3648    2.4350 C.3     1  UNL1        0.1968
     35 C          24.4738   74.8468    2.4043 C.3     1  UNL1        0.1723
     36 C          23.7179   72.4591    0.9552 C.3     1  UNL1        0.2706
     37 C          24.1539   74.7989    0.9130 C.3     1  UNL1        0.1830
     38 H          23.9700   72.9082    4.9639 H       1  UNL1        0.2105
     39 H          23.5845   71.2421    3.9731 H       1  UNL1        0.2106
     40 H          24.1864   76.1219    3.8840 H       1  UNL1        0.2106
     41 O          24.9513   75.4856   -1.1832 O.co2   1  UNL1       -0.5466
     42 O          25.7680   76.5724    0.6473 O.co2   1  UNL1       -0.5466
     43 C          25.0479   75.7204    0.1488 C.2     1  UNL1        0.0799
@<TRIPOS>UNITY_ATOM_ATTR
2 1
charge -1
26 1
charge -1
41 1
charge -1
@<TRIPOS>BOND
     1     1     4    1
     2     1    24    1
     3     1     2    1
     4     1     3    2
     5    25    28    1
     6    25    24    1
     7    25    26    1
     8    25    27    2
     9     6    11    1
    10     6    12    1
    11    29    36    1
    12    29    37    1
    13     7     9    1
    14     7    13    1
    15     8    10    1
    16     8    14    1
    17     4     5    1
    18    28    36    1
    19    30    33    1
    20    30    38    1
    21    31    34    1
    22    31    39    1
    23    32    35    1
    24    32    40    1
    25    41    43   ar
    26    15    19    2
    27    42    43   ar
    28    16    22    2
    29    17    12    1
    30    17    19   ar
    31    17    20   ar
    32    18    19   ar
    33    18    22   ar
    34    18    23    1
    35     9    10    1
    36     9    11    1
    37    10    12    1
    38    11     5    1
    39    33    34    1
    40    33    35    1
    41    34    36    1
    42    35    37    1
    43    37    43    1
    44    20    21   ar
    45    21    22   ar
@<TRIPOS>MOLECULE
*****
 43 45 0 0 0
SMALL
GASTEIGER

@<TRIPOS>ATOM
      1 P          20.9626   72.4864   -4.1902 P.3     1  UNL1        0.2189
      2 O          21.4865   71.2478   -3.2900 O.co2   1  UNL1       -0.4371
      3 O          19.5160   72.8384   -4.0030 O.2     1  UNL1       -0.5170
      4 O          21.3988   72.0844   -5.6956 O.3     1  UNL1       -0.3112
      5 C          20.4499   72.2302   -6.7362 C.3     1  UNL1        0.1811
      6 O          19.1772   70.2692   -6.1772 O.3     1  UNL1       -0.3308
      7 O          19.2599   69.6093   -9.1011 O.3     1  UNL1       -0.3794
      8 O          16.7597   70.6544   -8.7966 O.3     1  UNL1       -0.3779
      9 C          19.1575   70.8834   -8.4648 C.3     1  UNL1        0.1713
     10 C          17.7661   71.0770   -7.9004 C.3     1  UNL1        0.1895
     11 C          20.0107   70.8487   -7.2042 C.3     1  UNL1        0.1764
     12 C          17.8173   70.2330   -6.6384 C.3     1  UNL1        0.2383
     13 H          18.7229   69.6071   -9.9094 H       1  UNL1        0.2105
     14 H          16.7676   71.2229   -9.5832 H       1  UNL1        0.2106
     15 O          16.8802   68.7091   -4.4530 O.2     1  UNL1       -0.2464
     16 O          14.5331   72.2832   -2.7322 O.2     1  UNL1       -0.2670
     17 N          16.9601   70.7403   -5.6046 N.ar    1  UNL1       -0.2551
     18 N          15.7113   70.4903   -3.5986 N.ar    1  UNL1       -0.2743
     19 C          16.5464   69.8914   -4.5509 C.ar    1  UNL1        0.3323
     20 C          16.5396   72.0642   -5.6399 C.ar    1  UNL1        0.0869
     21 C          15.7436   72.6209   -4.7249 C.ar    1  UNL1        0.0795
     22 C          15.2658   71.8022   -3.5914 C.ar    1  UNL1        0.2626
     23 H          15.4086   69.9185   -2.8564 H       1  UNL1        0.1734
     24 O          21.9976   73.6703   -3.8159 O.3     1  UNL1       -0.2703
     25 P          23.5918   73.6414   -3.5489 P.3     1  UNL1        0.2208
     26 O          24.0220   75.1936   -3.7101 O.co2   1  UNL1       -0.4371
     27 O          24.3477   72.6949   -4.4358 O.2     1  UNL1       -0.5170
     28 O          23.7370   73.3405   -1.9707 O.3     1  UNL1       -0.2858
     29 O          21.9975   73.0279   -0.3941 O.3     1  UNL1       -0.3226
     30 O          25.0156   74.5575    1.9764 O.3     1  UNL1       -0.3794
     31 O          24.5004   75.6784   -0.6717 O.3     1  UNL1       -0.3775
     32 O          24.3827   71.7217    2.0690 O.3     1  UNL1       -0.3792
     33 C          24.4611   73.8198    0.8872 C.3     1  UNL1        0.1718
     34 C          23.6458   74.7575   -0.0036 C.3     1  UNL1        0.1968
     35 C          23.5649   72.7230    1.4664 C.3     1  UNL1        0.1723
     36 C          22.8515   73.9690   -1.0457 C.3     1  UNL1        0.2706
     37 C          22.7127   72.0695    0.3823 C.3     1  UNL1        0.1830
     38 H          25.5891   75.2604    1.6324 H       1  UNL1        0.2105
     39 H          25.0077   76.1820   -0.0164 H       1  UNL1        0.2106
     40 H          24.9302   72.1246    2.7608 H       1  UNL1        0.2106
     41 O          20.5814   72.0329    1.3608 O.co2   1  UNL1       -0.5466
     42 O          21.6544   70.0343    1.1302 O.co2   1  UNL1       -0.5466
     43 C          21.6222   71.2475    0.9883 C.2     1  UNL1        0.0799
@<TRIPOS>UNITY_ATOM_ATTR
2 1
charge -1
26 1
charge -1
41 1
charge -1
@<TRIPOS>BOND
     1     1     4    1
     2     1    24    1
     3     1     2    1
     4     1     3    2
     5    25    28    1
     6    25    24    1
     7    25    26    1
     8    25    27    2
     9     6    11    1
    10     6    12    1
    11    29    36    1
    12    29    37    1
    13     7     9    1
    14     7    13    1
    15     8    10    1
    16     8    14    1
    17     4     5    1
    18    28    36    1
    19    30    33    1
    20    30    38    1
    21    31    34    1
    22    31    39    1
    23    32    35    1
    24    32    40    1
    25    41    43   ar
    26    15    19    2
    27    42    43   ar
    28    16    22    2
    29    17    12    1
    30    17    19   ar
    31    17    20   ar
    32    18    19   ar
    33    18    22   ar
    34    18    23    1
    35     9    10    1
    36     9    11    1
    37    10    12    1
    38    11     5    1
    39    33    34    1
    40    33    35    1
    41    34    36    1
    42    35    37    1
    43    37    43    1
    44    20    21   ar
    45    21    22   ar
@<TRIPOS>MOLECULE
*****
 43 45 0 0 0
SMALL
GASTEIGER

@<TRIPOS>ATOM
      1 P          21.4742   72.8997   -2.4873 P.3     1  UNL1        0.2189
      2 O          22.2967   71.7067   -1.7668 O.co2   1  UNL1       -0.4371
      3 O          19.9933   72.8840   -2.2459 O.2     1  UNL1       -0.5170
      4 O          21.9347   72.8088   -4.0358 O.3     1  UNL1       -0.3112
      5 C          21.0027   73.1651   -5.0403 C.3     1  UNL1        0.1811
      6 O          20.5267   70.9189   -5.7515 O.3     1  UNL1       -0.3308
      7 O          20.8841   71.9284   -8.5524 O.3     1  UNL1       -0.3794
      8 O          18.1710   71.8410   -8.2921 O.3     1  UNL1       -0.3779
      9 C          20.3149   72.5865   -7.4204 C.3     1  UNL1        0.1713
     10 C          18.9413   72.0236   -7.1226 C.3     1  UNL1        0.1895
     11 C          21.1047   72.1683   -6.1877 C.3     1  UNL1        0.1764
     12 C          19.2803   70.7121   -6.4349 C.3     1  UNL1        0.2383
     13 H          20.3959   72.1801   -9.3524 H       1  UNL1        0.2105
     14 H          17.9814   72.7045   -8.6925 H       1  UNL1        0.2106
     15 O          16.7737   69.5997   -7.1103 O.2     1  UNL1       -0.2464
     16 O          15.5327   69.2480   -2.6853 O.2     1  UNL1       -0.2670
     17 N          18.2831   70.3207   -5.4792 N.ar    1  UNL1       -0.2551
     18 N          16.1576   69.4265   -4.9058 N.ar    1  UNL1       -0.2743
     19 C          17.0568   69.7719   -5.9232 C.ar    1  UNL1        0.3323
     20 C          18.5247   70.4800   -4.1201 C.ar    1  UNL1        0.0869
     21 C          17.6579   70.1460   -3.1621 C.ar    1  UNL1        0.0795
     22 C          16.3525   69.5666   -3.5412 C.ar    1  UNL1        0.2626
     23 H          15.2961   69.0444   -5.1905 H       1  UNL1        0.1734
     24 O          22.2281   74.2293   -1.9615 O.3     1  UNL1       -0.2703
     25 P          23.8014   74.5866   -1.8578 P.3     1  UNL1        0.2208
     26 O          23.8009   76.1805   -1.5751 O.co2   1  UNL1       -0.4371
     27 O          24.6075   74.1710   -3.0542 O.2     1  UNL1       -0.5170
     28 O          24.2802   73.9264   -0.4659 O.3     1  UNL1       -0.2858
     29 O          22.5899   73.4561    1.1250 O.3     1  UNL1       -0.3226
     30 O          26.0182   73.0338    3.3913 O.3     1  UNL1       -0.3794
     31 O          25.7622   75.2365    1.4894 O.3     1  UNL1       -0.3775
     32 O          24.5643   70.6824    2.4925 O.3     1  UNL1       -0.3792
     33 C          25.2254   72.9814    2.2053 C.3     1  UNL1        0.1718
     34 C          24.6966   74.3788    1.8810 C.3     1  UNL1        0.1968
     35 C          24.0635   72.0174    2.4553 C.3     1  UNL1        0.1723
     36 C          23.6618   74.3248    0.7563 C.3     1  UNL1        0.2706
     37 C          23.0127   72.1136    1.3530 C.3     1  UNL1        0.1830
     38 H          26.7630   73.6407    3.2560 H       1  UNL1        0.2105
     39 H          26.4227   75.2752    2.1984 H       1  UNL1        0.2106
     40 H          25.2343   70.6076    3.1899 H       1  UNL1        0.2106
     41 O          21.6703   70.1959    1.2047 O.co2   1  UNL1       -0.5466
     42 O          20.9008   71.9064    2.5013 O.co2   1  UNL1       -0.5466
     43 C          21.7495   71.4291    1.7631 C.2     1  UNL1        0.0799
@<TRIPOS>UNITY_ATOM_ATTR
2 1
charge -1
26 1
charge -1
41 1
charge -1
@<TRIPOS>BOND
     1     1     4    1
     2     1    24    1
     3     1     2    1
     4     1     3    2
     5    25    28    1
     6    25    24    1
     7    25    26    1
     8    25    27    2
     9     6    11    1
    10     6    12    1
    11    29    36    1
    12    29    37    1
    13     7     9    1
    14     7    13    1
    15     8    10    1
    16     8    14    1
    17     4     5    1
    18    28    36    1
    19    30    33    1
    20    30    38    1
    21    31    34    1
    22    31    39    1
    23    32    35    1
    24    32    40    1
    25    41    43   ar
    26    15    19    2
    27    42    43   ar
    28    16    22    2
    29    17    12    1
    30    17    19   ar
    31    17    20   ar
    32    18    19   ar
    33    18    22   ar
    34    18    23    1
    35     9    10    1
    36     9    11    1
    37    10    12    1
    38    11     5    1
    39    33    34    1
    40    33    35    1
    41    34    36    1
    42    35    37    1
    43    37    43    1
    44    20    21   ar
    45    21    22   ar
@<TRIPOS>MOLECULE
*****
 43 45 0 0 0
SMALL
GASTEIGER

@<TRIPOS>ATOM
      1 P          22.8120   72.2111   -3.4904 P.3     1  UNL1        0.2189
      2 O          22.4679   70.6357   -3.3546 O.co2   1  UNL1       -0.4371
      3 O          24.1761   72.5169   -4.0360 O.2     1  UNL1       -0.5170
      4 O          22.4937   72.8065   -2.0200 O.3     1  UNL1       -0.3112
      5 C          23.4789   72.6792   -1.0112 C.3     1  UNL1        0.1811
      6 O          24.4578   71.0492    0.4594 O.3     1  UNL1       -0.3308
      7 O          21.6517   70.1815    1.0627 O.3     1  UNL1       -0.3794
      8 O          22.2802   71.7141    3.2289 O.3     1  UNL1       -0.3779
      9 C          22.1576   71.4926    0.8106 C.3     1  UNL1        0.1713
     10 C          22.9350   71.9939    2.0092 C.3     1  UNL1        0.1895
     11 C          23.2444   71.3808   -0.2499 C.3     1  UNL1        0.1764
     12 C          24.2503   71.2471    1.8669 C.3     1  UNL1        0.2383
     13 H          20.9556   70.2274    1.7373 H       1  UNL1        0.2105
     14 H          21.4489   72.2132    3.2715 H       1  UNL1        0.2106
     15 O          24.1723   73.9923    2.5259 O.2     1  UNL1       -0.2464
     16 O          28.5660   73.9699    3.9182 O.2     1  UNL1       -0.2670
     17 N          25.3595   71.9838    2.4033 N.ar    1  UNL1       -0.2551
     18 N          26.3610   73.9788    3.2178 N.ar    1  UNL1       -0.2743
     19 C          25.2156   73.3598    2.7001 C.ar    1  UNL1        0.3323
     20 C          26.5717   71.3440    2.6316 C.ar    1  UNL1        0.0869
     21 C          27.6546   71.9473    3.1257 C.ar    1  UNL1        0.0795
     22 C          27.5887   73.3847    3.4617 C.ar    1  UNL1        0.2626
     23 H          26.2858   74.9372    3.4302 H       1  UNL1        0.1734
     24 O          21.5879   72.7743   -4.3833 O.3     1  UNL1       -0.2703
     25 P          21.4809   73.0757   -5.9680 P.3     1  UNL1        0.2208
     26 O          22.6760   72.1824   -6.5959 O.co2   1  UNL1       -0.4371
     27 O          21.5457   74.5329   -6.3235 O.2     1  UNL1       -0.5170
     28 O          20.1279   72.3320   -6.4356 O.3     1  UNL1       -0.2858
     29 O          19.5629   70.1553   -5.6927 O.3     1  UNL1       -0.3226
     30 O          17.2739   70.4960   -9.1150 O.3     1  UNL1       -0.3794
     31 O          20.0310   71.4611   -9.0754 O.3     1  UNL1       -0.3775
     32 O          16.0301   70.7320   -6.4981 O.3     1  UNL1       -0.3792
     33 C          17.9439   70.9618   -7.9436 C.3     1  UNL1        0.1718
     34 C          19.4391   70.6634   -8.0565 C.3     1  UNL1        0.1968
     35 C          17.3458   70.2357   -6.7365 C.3     1  UNL1        0.1723
     36 C          20.1531   70.9369   -6.7320 C.3     1  UNL1        0.2706
     37 C          18.1853   70.4566   -5.4815 C.3     1  UNL1        0.1830
     38 H          17.6374   70.9437   -9.8952 H       1  UNL1        0.2105
     39 H          19.5826   71.2928   -9.9186 H       1  UNL1        0.2106
     40 H          15.4855   70.5976   -7.2894 H       1  UNL1        0.2106
     41 O          16.6319   68.8722   -4.7212 O.co2   1  UNL1       -0.5466
     42 O          18.4269   69.2955   -3.3803 O.co2   1  UNL1       -0.5466
     43 C          17.7932   69.4971   -4.4054 C.2     1  UNL1        0.0799
@<TRIPOS>UNITY_ATOM_ATTR
2 1
charge -1
26 1
charge -1
41 1
charge -1
@<TRIPOS>BOND
     1     1     4    1
     2     1    24    1
     3     1     2    1
     4     1     3    2
     5    25    28    1
     6    25    24    1
     7    25    26    1
     8    25    27    2
     9     6    11    1
    10     6    12    1
    11    29    36    1
    12    29    37    1
    13     7     9    1
    14     7    13    1
    15     8    10    1
    16     8    14    1
    17     4     5    1
    18    28    36    1
    19    30    33    1
    20    30    38    1
    21    31    34    1
    22    31    39    1
    23    32    35    1
    24    32    40    1
    25    41    43   ar
    26    15    19    2
    27    42    43   ar
    28    16    22    2
    29    17    12    1
    30    17    19   ar
    31    17    20   ar
    32    18    19   ar
    33    18    22   ar
    34    18    23    1
    35     9    10    1
    36     9    11    1
    37    10    12    1
    38    11     5    1
    39    33    34    1
    40    33    35    1
    41    34    36    1
    42    35    37    1
    43    37    43    1
    44    20    21   ar
    45    21    22   ar
@<TRIPOS>MOLECULE
*****
 43 45 0 0 0
SMALL
GASTEIGER

@<TRIPOS>ATOM
      1 P          23.1124   71.4121   -2.3444 P.3     1  UNL1        0.2189
      2 O          22.9698   73.0176   -2.4894 O.co2   1  UNL1       -0.4371
      3 O          24.2209   70.7993   -3.1491 O.2     1  UNL1       -0.5170
      4 O          21.6252   70.8597   -2.6621 O.3     1  UNL1       -0.3112
      5 C          20.9542   71.3461   -3.8100 C.3     1  UNL1        0.1811
      6 O          18.7936   71.9146   -4.6968 O.3     1  UNL1       -0.3308
      7 O          17.6491   70.4817   -2.3243 O.3     1  UNL1       -0.3794
      8 O          17.3804   68.6414   -4.3186 O.3     1  UNL1       -0.3779
      9 C          18.8140   70.1739   -3.0904 C.3     1  UNL1        0.1713
     10 C          18.4206   69.5900   -4.4308 C.3     1  UNL1        0.1895
     11 C          19.4705   71.4867   -3.4951 C.3     1  UNL1        0.1764
     12 C          18.0014   70.8289   -5.2037 C.3     1  UNL1        0.2383
     13 H          17.2124   69.6582   -2.0543 H       1  UNL1        0.2105
     14 H          17.6971   67.8719   -3.8190 H       1  UNL1        0.2106
     15 O          15.9746   70.3924   -7.1215 O.2     1  UNL1       -0.2464
     16 O          19.0112   70.3490  -10.5886 O.2     1  UNL1       -0.2670
     17 N          18.2344   70.6997   -6.6143 N.ar    1  UNL1       -0.2551
     18 N          17.4890   70.3702   -8.8464 N.ar    1  UNL1       -0.2743
     19 C          17.1465   70.4819   -7.4924 C.ar    1  UNL1        0.3323
     20 C          19.5275   70.7905   -7.1148 C.ar    1  UNL1        0.0869
     21 C          19.8384   70.6821   -8.4080 C.ar    1  UNL1        0.0795
     22 C          18.7600   70.4529   -9.3918 C.ar    1  UNL1        0.2626
     23 H          16.7486   70.2162   -9.4767 H       1  UNL1        0.1734
     24 O          23.2444   71.2023   -0.7471 O.3     1  UNL1       -0.2703
     25 P          22.1594   71.3731    0.4392 P.3     1  UNL1        0.2208
     26 O          23.0168   72.0587    1.6288 O.co2   1  UNL1       -0.4371
     27 O          21.4685   70.0988    0.8300 O.2     1  UNL1       -0.5170
     28 O          21.1712   72.5400   -0.0750 O.3     1  UNL1       -0.2858
     29 O          21.3364   74.8465   -0.5866 O.3     1  UNL1       -0.3226
     30 O          17.8150   74.7139    1.5698 O.3     1  UNL1       -0.3794
     31 O          20.1377   73.1651    2.4305 O.3     1  UNL1       -0.3775
     32 O          17.7452   75.0024   -1.3220 O.3     1  UNL1       -0.3792
     33 C          18.8215   74.2195    0.6863 C.3     1  UNL1        0.1718
     34 C          20.1628   74.1647    1.4181 C.3     1  UNL1        0.1968
     35 C          18.9070   75.1682   -0.5114 C.3     1  UNL1        0.1723
     36 C          21.3041   73.8610    0.4465 C.3     1  UNL1        0.2706
     37 C          20.1406   74.8812   -1.3625 C.3     1  UNL1        0.1830
     38 H          17.7428   74.1268    2.3389 H       1  UNL1        0.2105
     39 H          19.4157   73.3514    3.0504 H       1  UNL1        0.2106
     40 H          16.9528   75.1820   -0.7921 H       1  UNL1        0.2106
     41 O          19.4531   76.9651   -2.1910 O.co2   1  UNL1       -0.5466
     42 O          21.3230   76.0439   -3.1150 O.co2   1  UNL1       -0.5466
     43 C          20.3951   75.9984   -2.3213 C.2     1  UNL1        0.0799
@<TRIPOS>UNITY_ATOM_ATTR
2 1
charge -1
26 1
charge -1
41 1
charge -1
@<TRIPOS>BOND
     1     1     4    1
     2     1    24    1
     3     1     2    1
     4     1     3    2
     5    25    28    1
     6    25    24    1
     7    25    26    1
     8    25    27    2
     9     6    11    1
    10     6    12    1
    11    29    36    1
    12    29    37    1
    13     7     9    1
    14     7    13    1
    15     8    10    1
    16     8    14    1
    17     4     5    1
    18    28    36    1
    19    30    33    1
    20    30    38    1
    21    31    34    1
    22    31    39    1
    23    32    35    1
    24    32    40    1
    25    41    43   ar
    26    15    19    2
    27    42    43   ar
    28    16    22    2
    29    17    12    1
    30    17    19   ar
    31    17    20   ar
    32    18    19   ar
    33    18    22   ar
    34    18    23    1
    35     9    10    1
    36     9    11    1
    37    10    12    1
    38    11     5    1
    39    33    34    1
    40    33    35    1
    41    34    36    1
    42    35    37    1
    43    37    43    1
    44    20    21   ar
    45    21    22   ar
@<TRIPOS>MOLECULE
*****
 43 45 0 0 0
SMALL
GASTEIGER

@<TRIPOS>ATOM
      1 P          21.8472   72.4893   -5.6435 P.3     1  UNL1        0.2189
      2 O          21.2230   73.9550   -5.3589 O.co2   1  UNL1       -0.4371
      3 O          23.1030   72.4841   -6.4648 O.2     1  UNL1       -0.5170
      4 O          20.6055   71.6499   -6.2530 O.3     1  UNL1       -0.3112
      5 C          20.1106   72.0065   -7.5307 C.3     1  UNL1        0.1811
      6 O          18.9120   69.9636   -7.1210 O.3     1  UNL1       -0.3308
      7 O          18.1382   70.0550  -10.0166 O.3     1  UNL1       -0.3794
      8 O          15.8965   70.9824   -8.7713 O.3     1  UNL1       -0.3779
      9 C          18.3025   71.1295   -9.0908 C.3     1  UNL1        0.1713
     10 C          17.1377   71.1713   -8.1244 C.3     1  UNL1        0.1895
     11 C          19.4665   70.7841   -8.1721 C.3     1  UNL1        0.1764
     12 C          17.4784   70.0390   -7.1706 C.3     1  UNL1        0.2383
     13 H          17.3999   70.2529  -10.6144 H       1  UNL1        0.2105
     14 H          15.7254   71.7293   -9.3669 H       1  UNL1        0.2106
     15 O          16.2874   68.0566   -5.5496 O.2     1  UNL1       -0.2464
     16 O          15.5896   71.0356   -2.1024 O.2     1  UNL1       -0.2670
     17 N          16.9768   70.2692   -5.8454 N.ar    1  UNL1       -0.2551
     18 N          15.9401   69.5424   -3.8346 N.ar    1  UNL1       -0.2743
     19 C          16.3966   69.2049   -5.1156 C.ar    1  UNL1        0.3323
     20 C          17.0635   71.5362   -5.2813 C.ar    1  UNL1        0.0869
     21 C          16.6241   71.8426   -4.0591 C.ar    1  UNL1        0.0795
     22 C          16.0037   70.7878   -3.2309 C.ar    1  UNL1        0.2626
     23 H          15.5303   68.8184   -3.3081 H       1  UNL1        0.1734
     24 O          22.0107   71.8701   -4.1593 O.3     1  UNL1       -0.2703
     25 P          23.2132   71.9908   -3.0855 P.3     1  UNL1        0.2208
     26 O          23.8671   73.4326   -3.4229 O.co2   1  UNL1       -0.4371
     27 O          24.1858   70.8476   -3.1190 O.2     1  UNL1       -0.5170
     28 O          22.4751   72.2005   -1.6664 O.3     1  UNL1       -0.2858
     29 O          23.1985   70.6000   -0.0776 O.3     1  UNL1       -0.3226
     30 O          20.2182   72.5631    2.0037 O.3     1  UNL1       -0.3794
     31 O          19.8495   71.8703   -0.8103 O.3     1  UNL1       -0.3775
     32 O          23.0119   73.0928    2.6081 O.3     1  UNL1       -0.3792
     33 C          21.2840   72.4367    1.0625 C.3     1  UNL1        0.1718
     34 C          20.9134   71.3952    0.0064 C.3     1  UNL1        0.1968
     35 C          22.5378   72.0000    1.8236 C.3     1  UNL1        0.1723
     36 C          22.1139   71.0654   -0.8817 C.3     1  UNL1        0.2706
     37 C          23.6468   71.5676    0.8689 C.3     1  UNL1        0.1830
     38 H          19.4106   72.8398    1.5427 H       1  UNL1        0.2105
     39 H          19.0844   72.0818   -0.2532 H       1  UNL1        0.2106
     40 H          22.3153   73.3778    3.2200 H       1  UNL1        0.2106
     41 O          24.3505   70.5917    2.8823 O.co2   1  UNL1       -0.5466
     42 O          25.8025   70.5149    1.1260 O.co2   1  UNL1       -0.5466
     43 C          24.7268   70.8426    1.6039 C.2     1  UNL1        0.0799
@<TRIPOS>UNITY_ATOM_ATTR
2 1
charge -1
26 1
charge -1
41 1
charge -1
@<TRIPOS>BOND
     1     1     4    1
     2     1    24    1
     3     1     2    1
     4     1     3    2
     5    25    28    1
     6    25    24    1
     7    25    26    1
     8    25    27    2
     9     6    11    1
    10     6    12    1
    11    29    36    1
    12    29    37    1
    13     7     9    1
    14     7    13    1
    15     8    10    1
    16     8    14    1
    17     4     5    1
    18    28    36    1
    19    30    33    1
    20    30    38    1
    21    31    34    1
    22    31    39    1
    23    32    35    1
    24    32    40    1
    25    41    43   ar
    26    15    19    2
    27    42    43   ar
    28    16    22    2
    29    17    12    1
    30    17    19   ar
    31    17    20   ar
    32    18    19   ar
    33    18    22   ar
    34    18    23    1
    35     9    10    1
    36     9    11    1
    37    10    12    1
    38    11     5    1
    39    33    34    1
    40    33    35    1
    41    34    36    1
    42    35    37    1
    43    37    43    1
    44    20    21   ar
    45    21    22   ar
@<TRIPOS>MOLECULE
*****
 43 45 0 0 0
SMALL
GASTEIGER

@<TRIPOS>ATOM
      1 P          21.1453   72.5681   -4.3242 P.3     1  UNL1        0.2189
      2 O          20.3614   73.6929   -5.1840 O.co2   1  UNL1       -0.4371
      3 O          21.8258   71.5078   -5.1393 O.2     1  UNL1       -0.5170
      4 O          20.0359   72.0410   -3.2710 O.3     1  UNL1       -0.3112
      5 C          19.3690   70.8224   -3.5447 C.3     1  UNL1        0.1811
      6 O          17.6156   71.6679   -4.9548 O.3     1  UNL1       -0.3308
      7 O          15.7171   70.1934   -3.1623 O.3     1  UNL1       -0.3794
      8 O          15.9093   68.5358   -5.3190 O.3     1  UNL1       -0.3779
      9 C          17.0292   69.8245   -3.5877 C.3     1  UNL1        0.1713
     10 C          17.0053   69.3799   -5.0348 C.3     1  UNL1        0.1895
     11 C          17.8736   71.0896   -3.6570 C.3     1  UNL1        0.1764
     12 C          16.9279   70.7065   -5.7711 C.3     1  UNL1        0.2383
     13 H          15.1590   69.4013   -3.1105 H       1  UNL1        0.2105
     14 H          16.0052   67.7047   -4.8269 H       1  UNL1        0.2106
     15 O          15.5297   70.6389   -8.2240 O.2     1  UNL1       -0.2464
     16 O          19.4409   70.5088  -10.6591 O.2     1  UNL1       -0.2670
     17 N          17.5559   70.6548   -7.0609 N.ar    1  UNL1       -0.2551
     18 N          17.4790   70.5731   -9.4345 N.ar    1  UNL1       -0.2743
     19 C          16.7621   70.6238   -8.2318 C.ar    1  UNL1        0.3323
     20 C          18.9421   70.6369   -7.1573 C.ar    1  UNL1        0.0869
     21 C          19.6112   70.5887   -8.3108 C.ar    1  UNL1        0.0795
     22 C          18.8566   70.5529   -9.5808 C.ar    1  UNL1        0.2626
     23 H          16.9479   70.5488  -10.2631 H       1  UNL1        0.1734
     24 O          22.1376   73.4457   -3.3979 O.3     1  UNL1       -0.2703
     25 P          23.4895   74.2548   -3.7604 P.3     1  UNL1        0.2208
     26 O          24.5096   73.0842   -4.2181 O.co2   1  UNL1       -0.4371
     27 O          24.0038   75.1236   -2.6493 O.2     1  UNL1       -0.5170
     28 O          23.1403   75.0460   -5.1221 O.3     1  UNL1       -0.2858
     29 O          24.5695   75.7593   -6.8708 O.3     1  UNL1       -0.3226
     30 O          21.6678   78.6999   -6.9044 O.3     1  UNL1       -0.3794
     31 O          22.7265   77.6929   -4.3746 O.3     1  UNL1       -0.3775
     32 O          21.6805   76.6389   -8.9546 O.3     1  UNL1       -0.3792
     33 C          22.1862   77.3827   -6.7194 C.3     1  UNL1        0.1718
     34 C          23.2820   77.4090   -5.6535 C.3     1  UNL1        0.1968
     35 C          22.7565   76.9067   -8.0573 C.3     1  UNL1        0.1723
     36 C          24.0167   76.0692   -5.5910 C.3     1  UNL1        0.2706
     37 C          23.5806   75.6333   -7.8902 C.3     1  UNL1        0.1830
     38 H          21.2999   79.0233   -6.0669 H       1  UNL1        0.2105
     39 H          22.2585   78.5416   -4.4070 H       1  UNL1        0.2106
     40 H          21.1480   77.4415   -9.0695 H       1  UNL1        0.2106
     41 O          24.4832   76.4754   -9.8846 O.co2   1  UNL1       -0.5466
     42 O          24.9111   74.2911   -9.3901 O.co2   1  UNL1       -0.5466
     43 C          24.3933   75.3629   -9.1144 C.2     1  UNL1        0.0799
@<TRIPOS>UNITY_ATOM_ATTR
2 1
charge -1
26 1
charge -1
41 1
charge -1
@<TRIPOS>BOND
     1     1     4    1
     2     1    24    1
     3     1     2    1
     4     1     3    2
     5    25    28    1
     6    25    24    1
     7    25    26    1
     8    25    27    2
     9     6    11    1
    10     6    12    1
    11    29    36    1
    12    29    37    1
    13     7     9    1
    14     7    13    1
    15     8    10    1
    16     8    14    1
    17     4     5    1
    18    28    36    1
    19    30    33    1
    20    30    38    1
    21    31    34    1
    22    31    39    1
    23    32    35    1
    24    32    40    1
    25    41    43   ar
    26    15    19    2
    27    42    43   ar
    28    16    22    2
    29    17    12    1
    30    17    19   ar
    31    17    20   ar
    32    18    19   ar
    33    18    22   ar
    34    18    23    1
    35     9    10    1
    36     9    11    1
    37    10    12    1
    38    11     5    1
    39    33    34    1
    40    33    35    1
    41    34    36    1
    42    35    37    1
    43    37    43    1
    44    20    21   ar
    45    21    22   ar
@<TRIPOS>MOLECULE
*****
 43 45 0 0 0
SMALL
GASTEIGER

@<TRIPOS>ATOM
      1 P          23.2804   73.9484   -4.1415 P.3     1  UNL1        0.2189
      2 O          24.4296   72.8120   -4.0601 O.co2   1  UNL1       -0.4371
      3 O          22.6888   74.3469   -2.8213 O.2     1  UNL1       -0.5170
      4 O          22.2363   73.3676   -5.2326 O.3     1  UNL1       -0.3112
      5 C          21.6738   72.0867   -5.0152 C.3     1  UNL1        0.1811
      6 O          20.4802   70.3218   -6.1279 O.3     1  UNL1       -0.3308
      7 O          20.7935   71.9411   -8.6321 O.3     1  UNL1       -0.3794
      8 O          18.2233   72.4759   -7.8943 O.3     1  UNL1       -0.3779
      9 C          20.5771   72.3826   -7.2917 C.3     1  UNL1        0.1713
     10 C          19.1426   72.1267   -6.8806 C.3     1  UNL1        0.1895
     11 C          21.3456   71.4540   -6.3614 C.3     1  UNL1        0.1764
     12 C          19.1581   70.6349   -6.5939 C.3     1  UNL1        0.2383
     13 H          20.3121   72.5193   -9.2450 H       1  UNL1        0.2105
     14 H          18.2510   73.4352   -8.0394 H       1  UNL1        0.2106
     15 O          16.4728   69.9333   -7.1169 O.2     1  UNL1       -0.2464
     16 O          15.5985   69.2166   -2.6486 O.2     1  UNL1       -0.2670
     17 N          18.2069   70.2607   -5.5858 N.ar    1  UNL1       -0.2551
     18 N          16.0396   69.5780   -4.8908 N.ar    1  UNL1       -0.2743
     19 C          16.8823   69.9265   -5.9545 C.ar    1  UNL1        0.3323
     20 C          18.5892   70.2259   -4.2503 C.ar    1  UNL1        0.0869
     21 C          17.7747   69.8915   -3.2476 C.ar    1  UNL1        0.0795
     22 C          16.3738   69.5294   -3.5471 C.ar    1  UNL1        0.2626
     23 H          15.1120   69.3433   -5.1225 H       1  UNL1        0.1734
     24 O          24.0120   75.1477   -4.9410 O.3     1  UNL1       -0.2703
     25 P          25.0650   76.2684   -4.4423 P.3     1  UNL1        0.2208
     26 O          25.1745   75.9910   -2.8513 O.co2   1  UNL1       -0.4371
     27 O          24.6822   77.6754   -4.7997 O.2     1  UNL1       -0.5170
     28 O          26.4855   75.7892   -5.0379 O.3     1  UNL1       -0.2858
     29 O          28.7242   76.3425   -4.4982 O.3     1  UNL1       -0.3226
     30 O          28.9249   75.9382   -8.6048 O.3     1  UNL1       -0.3794
     31 O          26.6651   77.3091   -7.3604 O.3     1  UNL1       -0.3775
     32 O          29.9783   73.8489   -6.8797 O.3     1  UNL1       -0.3792
     33 C          28.4434   75.6602   -7.2899 C.3     1  UNL1        0.1718
     34 C          27.8569   76.9335   -6.6798 C.3     1  UNL1        0.1968
     35 C          29.6217   75.1616   -6.4504 C.3     1  UNL1        0.1723
     36 C          27.5419   76.7346   -5.1966 C.3     1  UNL1        0.2706
     37 C          29.2667   75.1101   -4.9672 C.3     1  UNL1        0.1830
     38 H          28.1932   76.2568   -9.1566 H       1  UNL1        0.2105
     39 H          26.8576   77.4367   -8.3022 H       1  UNL1        0.2106
     40 H          30.2063   73.8677   -7.8223 H       1  UNL1        0.2106
     41 O          31.0746   73.7417   -4.3668 O.co2   1  UNL1       -0.5466
     42 O          30.9269   75.7763   -3.3481 O.co2   1  UNL1       -0.5466
     43 C          30.4953   74.9453   -4.1331 C.2     1  UNL1        0.0799
@<TRIPOS>UNITY_ATOM_ATTR
2 1
charge -1
26 1
charge -1
41 1
charge -1
@<TRIPOS>BOND
     1     1     4    1
     2     1    24    1
     3     1     2    1
     4     1     3    2
     5    25    28    1
     6    25    24    1
     7    25    26    1
     8    25    27    2
     9     6    11    1
    10     6    12    1
    11    29    36    1
    12    29    37    1
    13     7     9    1
    14     7    13    1
    15     8    10    1
    16     8    14    1
    17     4     5    1
    18    28    36    1
    19    30    33    1
    20    30    38    1
    21    31    34    1
    22    31    39    1
    23    32    35    1
    24    32    40    1
    25    41    43   ar
    26    15    19    2
    27    42    43   ar
    28    16    22    2
    29    17    12    1
    30    17    19   ar
    31    17    20   ar
    32    18    19   ar
    33    18    22   ar
    34    18    23    1
    35     9    10    1
    36     9    11    1
    37    10    12    1
    38    11     5    1
    39    33    34    1
    40    33    35    1
    41    34    36    1
    42    35    37    1
    43    37    43    1
    44    20    21   ar
    45    21    22   ar
@<TRIPOS>MOLECULE
*****
 43 45 0 0 0
SMALL
GASTEIGER

@<TRIPOS>ATOM
      1 P          20.8674   73.3360   -1.3493 P.3     1  UNL1        0.2189
      2 O          19.4290   72.7368   -0.9121 O.co2   1  UNL1       -0.4371
      3 O          21.2088   74.6672   -0.7468 O.2     1  UNL1       -0.5170
      4 O          20.8347   73.2840   -2.9661 O.3     1  UNL1       -0.3112
      5 C          20.3324   72.1194   -3.5952 C.3     1  UNL1        0.1811
      6 O          20.6967   70.6730   -5.4801 O.3     1  UNL1       -0.3308
      7 O          23.1326   72.3284   -6.0433 O.3     1  UNL1       -0.3794
      8 O          21.3218   73.3045   -7.8334 O.3     1  UNL1       -0.3779
      9 C          21.8626   72.7342   -5.5324 C.3     1  UNL1        0.1713
     10 C          20.8288   72.7355   -6.6385 C.3     1  UNL1        0.1895
     11 C          21.3495   71.6301   -4.6181 C.3     1  UNL1        0.1764
     12 C          20.5173   71.2554   -6.7808 C.3     1  UNL1        0.2383
     13 H          23.4806   73.0182   -6.6305 H       1  UNL1        0.2105
     14 H          21.5046   74.2470   -7.6912 H       1  UNL1        0.2106
     15 O          19.7355   71.0113   -9.4837 O.2     1  UNL1       -0.2464
     16 O          15.3211   70.3467   -8.3368 O.2     1  UNL1       -0.2670
     17 N          19.1702   71.0184   -7.2168 N.ar    1  UNL1       -0.2551
     18 N          17.5374   70.6815   -8.9100 N.ar    1  UNL1       -0.2743
     19 C          18.8838   70.9121   -8.5984 C.ar    1  UNL1        0.3323
     20 C          18.1505   70.8921   -6.2813 C.ar    1  UNL1        0.0869
     21 C          16.8719   70.6723   -6.5935 C.ar    1  UNL1        0.0795
     22 C          16.4880   70.5494   -8.0151 C.ar    1  UNL1        0.2626
     23 H          17.3133   70.6059   -9.8657 H       1  UNL1        0.1734
     24 O          21.8887   72.1425   -0.9679 O.3     1  UNL1       -0.2703
     25 P          22.3242   71.5358    0.4659 P.3     1  UNL1        0.2208
     26 O          23.9247   71.3451    0.3161 O.co2   1  UNL1       -0.4371
     27 O          21.5866   70.2877    0.8562 O.2     1  UNL1       -0.5170
     28 O          22.1553   72.7638    1.4984 O.3     1  UNL1       -0.2858
     29 O          23.2623   74.6823    2.3367 O.3     1  UNL1       -0.3226
     30 O          22.4631   72.5890    5.8076 O.3     1  UNL1       -0.3794
     31 O          23.4094   71.1941    3.4217 O.3     1  UNL1       -0.3775
     32 O          20.8742   74.9219    5.1118 O.3     1  UNL1       -0.3792
     33 C          22.2294   73.0354    4.4719 C.3     1  UNL1        0.1718
     34 C          23.3942   72.6082    3.5784 C.3     1  UNL1        0.1968
     35 C          22.1096   74.5608    4.4972 C.3     1  UNL1        0.1723
     36 C          23.2938   73.2612    2.1992 C.3     1  UNL1        0.2706
     37 C          22.1427   75.1457    3.0882 C.3     1  UNL1        0.1830
     38 H          22.5427   71.6222    5.8164 H       1  UNL1        0.2105
     39 H          23.4727   70.7732    4.2930 H       1  UNL1        0.2106
     40 H          20.8404   74.5556    6.0094 H       1  UNL1        0.2106
     41 O          22.0473   77.1879    1.9385 O.co2   1  UNL1       -0.5466
     42 O          22.7531   77.2464    4.1058 O.co2   1  UNL1       -0.5466
     43 C          22.3567   76.6237    3.1322 C.2     1  UNL1        0.0799
@<TRIPOS>UNITY_ATOM_ATTR
2 1
charge -1
26 1
charge -1
41 1
charge -1
@<TRIPOS>BOND
     1     1     4    1
     2     1    24    1
     3     1     2    1
     4     1     3    2
     5    25    28    1
     6    25    24    1
     7    25    26    1
     8    25    27    2
     9     6    11    1
    10     6    12    1
    11    29    36    1
    12    29    37    1
    13     7     9    1
    14     7    13    1
    15     8    10    1
    16     8    14    1
    17     4     5    1
    18    28    36    1
    19    30    33    1
    20    30    38    1
    21    31    34    1
    22    31    39    1
    23    32    35    1
    24    32    40    1
    25    41    43   ar
    26    15    19    2
    27    42    43   ar
    28    16    22    2
    29    17    12    1
    30    17    19   ar
    31    17    20   ar
    32    18    19   ar
    33    18    22   ar
    34    18    23    1
    35     9    10    1
    36     9    11    1
    37    10    12    1
    38    11     5    1
    39    33    34    1
    40    33    35    1
    41    34    36    1
    42    35    37    1
    43    37    43    1
    44    20    21   ar
    45    21    22   ar
