@<TRIPOS>MOLECULE
*****
 43 45 0 0 0
SMALL
GASTEIGER

@<TRIPOS>ATOM
      1 P          22.9238   71.4067   -2.2985 P.3     1  UNL1        0.2189
      2 O          22.5518   72.9320   -2.6909 O.co2   1  UNL1       -0.4371
      3 O          24.1769   70.8772   -2.9319 O.2     1  UNL1       -0.5170
      4 O          21.5702   70.5813   -2.6217 O.3     1  UNL1       -0.3112
      5 C          20.9130   70.8161   -3.8535 C.3     1  UNL1        0.1811
      6 O          18.9078   71.7585   -4.7856 O.3     1  UNL1       -0.3308
      7 O          17.4617   70.4767   -2.4927 O.3     1  UNL1       -0.3794
      8 O          16.9601   68.7577   -4.5493 O.3     1  UNL1       -0.3779
      9 C          18.5849   69.9987   -3.2333 C.3     1  UNL1        0.1713
     10 C          18.1462   69.5224   -4.6019 C.3     1  UNL1        0.1895
     11 C          19.4632   71.1937   -3.5782 C.3     1  UNL1        0.1764
     12 C          17.9645   70.8329   -5.3485 C.3     1  UNL1        0.2383
     13 H          16.8858   69.7309   -2.2609 H       1  UNL1        0.2105
     14 H          17.1278   67.9338   -4.0644 H       1  UNL1        0.2106
     15 O          16.0041   70.1764   -7.2727 O.2     1  UNL1       -0.2464
     16 O          19.0616   70.3591  -10.7169 O.2     1  UNL1       -0.2670
     17 N          18.2208   70.7024   -6.7550 N.ar    1  UNL1       -0.2551
     18 N          17.5290   70.2670   -8.9861 N.ar    1  UNL1       -0.2743
     19 C          17.1657   70.3689   -7.6368 C.ar    1  UNL1        0.3323
     20 C          19.5041   70.9054   -7.2478 C.ar    1  UNL1        0.0869
     21 C          19.8350   70.8048   -8.5367 C.ar    1  UNL1        0.0795
     22 C          18.7913   70.4591   -9.5239 C.ar    1  UNL1        0.2626
     23 H          16.8117   70.0338   -9.6189 H       1  UNL1        0.1734
     24 O          22.9498   71.4438   -0.6827 O.3     1  UNL1       -0.2703
     25 P          21.7517   71.5691    0.3955 P.3     1  UNL1        0.2208
     26 O          21.6431   70.0726    1.0032 O.co2   1  UNL1       -0.4371
     27 O          20.4671   72.1015   -0.1704 O.2     1  UNL1       -0.5170
     28 O          22.3715   72.4517    1.5953 O.3     1  UNL1       -0.2858
     29 O          24.2028   71.5297    2.7809 O.3     1  UNL1       -0.3226
     30 O          23.0910   74.6523    5.2470 O.3     1  UNL1       -0.3794
     31 O          21.0651   72.9581    3.9979 O.3     1  UNL1       -0.3775
     32 O          25.4567   74.8855    3.5737 O.3     1  UNL1       -0.3792
     33 C          23.2687   73.9731    4.0040 C.3     1  UNL1        0.1718
     34 C          22.4596   72.6758    4.0094 C.3     1  UNL1        0.1968
     35 C          24.7597   73.6698    3.8397 C.3     1  UNL1        0.1723
     36 C          22.8029   71.8119    2.7950 C.3     1  UNL1        0.2706
     37 C          25.0076   72.7028    2.6856 C.3     1  UNL1        0.1830
     38 H          22.1507   74.8553    5.3731 H       1  UNL1        0.2105
     39 H          20.8403   73.5062    4.7657 H       1  UNL1        0.2106
     40 H          25.3070   75.5098    4.3008 H       1  UNL1        0.2106
     41 O          26.4348   70.8892    2.2666 O.co2   1  UNL1       -0.5466
     42 O          27.3753   72.7716    3.1448 O.co2   1  UNL1       -0.5466
     43 C          26.3988   72.1603    2.7377 C.2     1  UNL1        0.0799
@<TRIPOS>UNITY_ATOM_ATTR
2 1
charge -1
26 1
charge -1
41 1
charge -1
@<TRIPOS>BOND
     1     1     4    1
     2     1    24    1
     3     1     2    1
     4     1     3    2
     5    25    28    1
     6    25    24    1
     7    25    26    1
     8    25    27    2
     9     6    11    1
    10     6    12    1
    11    29    36    1
    12    29    37    1
    13     7     9    1
    14     7    13    1
    15     8    10    1
    16     8    14    1
    17     4     5    1
    18    28    36    1
    19    30    33    1
    20    30    38    1
    21    31    34    1
    22    31    39    1
    23    32    35    1
    24    32    40    1
    25    41    43   ar
    26    15    19    2
    27    42    43   ar
    28    16    22    2
    29    17    12    1
    30    17    19   ar
    31    17    20   ar
    32    18    19   ar
    33    18    22   ar
    34    18    23    1
    35     9    10    1
    36     9    11    1
    37    10    12    1
    38    11     5    1
    39    33    34    1
    40    33    35    1
    41    34    36    1
    42    35    37    1
    43    37    43    1
    44    20    21   ar
    45    21    22   ar
@<TRIPOS>MOLECULE
*****
 43 45 0 0 0
SMALL
GASTEIGER

@<TRIPOS>ATOM
      1 P          22.7231   72.1195   -3.9430 P.3     1  UNL1        0.2189
      2 O          23.4824   72.6821   -5.2568 O.co2   1  UNL1       -0.4371
      3 O          23.4416   71.0190   -3.2187 O.2     1  UNL1       -0.5170
      4 O          21.2394   71.7574   -4.4771 O.3     1  UNL1       -0.3112
      5 C          20.5001   70.7606   -3.7956 C.3     1  UNL1        0.1811
      6 O          18.6474   71.8092   -4.9117 O.3     1  UNL1       -0.3308
      7 O          16.9239   70.6290   -2.7604 O.3     1  UNL1       -0.3794
      8 O          16.5167   68.9264   -4.8512 O.3     1  UNL1       -0.3779
      9 C          18.0814   70.0822   -3.3925 C.3     1  UNL1        0.1713
     10 C          17.7446   69.6218   -4.7949 C.3     1  UNL1        0.1895
     11 C          19.0552   71.2225   -3.6568 C.3     1  UNL1        0.1764
     12 C          17.7085   70.9350   -5.5579 C.3     1  UNL1        0.2383
     13 H          16.2870   69.9191   -2.5815 H       1  UNL1        0.2105
     14 H          16.5910   68.0980   -4.3511 H       1  UNL1        0.2106
     15 O          15.9431   70.1464   -7.6165 O.2     1  UNL1       -0.2464
     16 O          19.2665   70.3716  -10.8022 O.2     1  UNL1       -0.2670
     17 N          18.0860   70.7796   -6.9342 N.ar    1  UNL1       -0.2551
     18 N          17.6002   70.2583   -9.2010 N.ar    1  UNL1       -0.2743
     19 C          17.1222   70.3790   -7.8896 C.ar    1  UNL1        0.3323
     20 C          19.3965   71.0246   -7.3258 C.ar    1  UNL1        0.0869
     21 C          19.8373   70.9054   -8.5798 C.ar    1  UNL1        0.0795
     22 C          18.8941   70.4903   -9.6388 C.ar    1  UNL1        0.2626
     23 H          16.9481   69.9786   -9.8835 H       1  UNL1        0.1734
     24 O          22.4778   73.4549   -3.0659 O.3     1  UNL1       -0.2703
     25 P          23.5138   74.5634   -2.5077 P.3     1  UNL1        0.2208
     26 O          22.5520   75.8058   -2.1185 O.co2   1  UNL1       -0.4371
     27 O          24.6174   74.9116   -3.4641 O.2     1  UNL1       -0.5170
     28 O          24.0158   73.9777   -1.0908 O.3     1  UNL1       -0.2858
     29 O          22.1999   73.0224    0.0920 O.3     1  UNL1       -0.3226
     30 O          25.2774   72.6355    2.8209 O.3     1  UNL1       -0.3794
     31 O          24.9732   75.0927    1.2705 O.3     1  UNL1       -0.3775
     32 O          24.3498   70.3190    1.3295 O.3     1  UNL1       -0.3792
     33 C          24.6870   72.6968    1.5226 C.3     1  UNL1        0.1718
     34 C          24.0049   74.0520    1.3341 C.3     1  UNL1        0.1968
     35 C          23.6620   71.5655    1.4154 C.3     1  UNL1        0.1723
     36 C          23.1692   74.0705    0.0535 C.3     1  UNL1        0.2706
     37 C          22.7843   71.7246    0.1773 C.3     1  UNL1        0.1830
     38 H          25.9325   73.3453    2.9123 H       1  UNL1        0.2105
     39 H          25.5073   75.0867    2.0799 H       1  UNL1        0.2106
     40 H          24.9122   70.2054    2.1116 H       1  UNL1        0.2106
     41 O          21.6832   70.0006    1.3249 O.co2   1  UNL1       -0.5466
     42 O          20.6626   70.8265   -0.5393 O.co2   1  UNL1       -0.5466
     43 C          21.5938   70.8248    0.2518 C.2     1  UNL1        0.0799
@<TRIPOS>UNITY_ATOM_ATTR
2 1
charge -1
26 1
charge -1
41 1
charge -1
@<TRIPOS>BOND
     1     1     4    1
     2     1    24    1
     3     1     2    1
     4     1     3    2
     5    25    28    1
     6    25    24    1
     7    25    26    1
     8    25    27    2
     9     6    11    1
    10     6    12    1
    11    29    36    1
    12    29    37    1
    13     7     9    1
    14     7    13    1
    15     8    10    1
    16     8    14    1
    17     4     5    1
    18    28    36    1
    19    30    33    1
    20    30    38    1
    21    31    34    1
    22    31    39    1
    23    32    35    1
    24    32    40    1
    25    41    43   ar
    26    15    19    2
    27    42    43   ar
    28    16    22    2
    29    17    12    1
    30    17    19   ar
    31    17    20   ar
    32    18    19   ar
    33    18    22   ar
    34    18    23    1
    35     9    10    1
    36     9    11    1
    37    10    12    1
    38    11     5    1
    39    33    34    1
    40    33    35    1
    41    34    36    1
    42    35    37    1
    43    37    43    1
    44    20    21   ar
    45    21    22   ar
@<TRIPOS>MOLECULE
*****
 43 45 0 0 0
SMALL
GASTEIGER

@<TRIPOS>ATOM
      1 P          23.3768   72.0149   -3.4186 P.3     1  UNL1        0.2189
      2 O          24.1349   72.9396   -4.5090 O.co2   1  UNL1       -0.4371
      3 O          24.1595   70.8266   -2.9419 O.2     1  UNL1       -0.5170
      4 O          21.9522   71.6858   -4.1116 O.3     1  UNL1       -0.3112
      5 C          21.2150   70.5707   -3.6452 C.3     1  UNL1        0.1811
      6 O          19.2313   71.6336   -4.4895 O.3     1  UNL1       -0.3308
      7 O          17.7991   70.3838   -2.1704 O.3     1  UNL1       -0.3794
      8 O          17.1383   68.7335   -4.2382 O.3     1  UNL1       -0.3779
      9 C          18.8698   69.8629   -2.9582 C.3     1  UNL1        0.1713
     10 C          18.3604   69.4368   -4.3187 C.3     1  UNL1        0.1895
     11 C          19.7972   71.0174   -3.3125 C.3     1  UNL1        0.1764
     12 C          18.2221   70.7692   -5.0353 C.3     1  UNL1        0.2383
     13 H          17.1931   69.6644   -1.9317 H       1  UNL1        0.2105
     14 H          17.2791   67.8928   -3.7741 H       1  UNL1        0.2106
     15 O          16.2477   69.9055   -6.8606 O.2     1  UNL1       -0.2464
     16 O          19.1049   70.3619  -10.4484 O.2     1  UNL1       -0.2670
     17 N          18.4231   70.6531   -6.4519 N.ar    1  UNL1       -0.2551
     18 N          17.6729   70.1327   -8.6457 N.ar    1  UNL1       -0.2743
     19 C          17.3658   70.2092   -7.2808 C.ar    1  UNL1        0.3323
     20 C          19.6550   70.9783   -7.0066 C.ar    1  UNL1        0.0869
     21 C          19.9327   70.9003   -8.3095 C.ar    1  UNL1        0.0795
     22 C          18.8829   70.4445   -9.2442 C.ar    1  UNL1        0.2626
     23 H          16.9531   69.8242   -9.2425 H       1  UNL1        0.1734
     24 O          22.9820   73.0701   -2.2596 O.3     1  UNL1       -0.2703
     25 P          23.1036   72.9739   -0.6503 P.3     1  UNL1        0.2208
     26 O          21.5605   72.9861   -0.1615 O.co2   1  UNL1       -0.4371
     27 O          23.9565   74.0437   -0.0322 O.2     1  UNL1       -0.5170
     28 O          23.6085   71.4682   -0.3673 O.3     1  UNL1       -0.2858
     29 O          24.5952   71.8198    1.7568 O.3     1  UNL1       -0.3226
     30 O          20.5773   72.2563    2.6136 O.3     1  UNL1       -0.3794
     31 O          21.4892   70.1263    0.8343 O.3     1  UNL1       -0.3775
     32 O          22.2934   74.5958    2.4335 O.3     1  UNL1       -0.3792
     33 C          21.7539   72.3323    1.8087 C.3     1  UNL1        0.1718
     34 C          22.3457   70.9334    1.6340 C.3     1  UNL1        0.1968
     35 C          22.7537   73.2484    2.5180 C.3     1  UNL1        0.1723
     36 C          23.7243   71.0010    0.9755 C.3     1  UNL1        0.2706
     37 C          24.1367   73.1644    1.8787 C.3     1  UNL1        0.1830
     38 H          19.9273   71.6791    2.1827 H       1  UNL1        0.2105
     39 H          20.6125   70.0793    1.2461 H       1  UNL1        0.2106
     40 H          21.4138   74.6629    2.8367 H       1  UNL1        0.2106
     41 O          24.6903   73.9453    4.0201 O.co2   1  UNL1       -0.5466
     42 O          26.2885   74.1215    2.4034 O.co2   1  UNL1       -0.5466
     43 C          25.1674   73.7917    2.7600 C.2     1  UNL1        0.0799
@<TRIPOS>UNITY_ATOM_ATTR
2 1
charge -1
26 1
charge -1
41 1
charge -1
@<TRIPOS>BOND
     1     1     4    1
     2     1    24    1
     3     1     2    1
     4     1     3    2
     5    25    28    1
     6    25    24    1
     7    25    26    1
     8    25    27    2
     9     6    11    1
    10     6    12    1
    11    29    36    1
    12    29    37    1
    13     7     9    1
    14     7    13    1
    15     8    10    1
    16     8    14    1
    17     4     5    1
    18    28    36    1
    19    30    33    1
    20    30    38    1
    21    31    34    1
    22    31    39    1
    23    32    35    1
    24    32    40    1
    25    41    43   ar
    26    15    19    2
    27    42    43   ar
    28    16    22    2
    29    17    12    1
    30    17    19   ar
    31    17    20   ar
    32    18    19   ar
    33    18    22   ar
    34    18    23    1
    35     9    10    1
    36     9    11    1
    37    10    12    1
    38    11     5    1
    39    33    34    1
    40    33    35    1
    41    34    36    1
    42    35    37    1
    43    37    43    1
    44    20    21   ar
    45    21    22   ar
@<TRIPOS>MOLECULE
*****
 43 45 0 0 0
SMALL
GASTEIGER

@<TRIPOS>ATOM
      1 P          21.5594   72.3778   -4.8742 P.3     1  UNL1        0.2189
      2 O          20.8033   73.8031   -5.0004 O.co2   1  UNL1       -0.4371
      3 O          22.7065   72.1831   -5.8218 O.2     1  UNL1       -0.5170
      4 O          20.3642   71.2928   -4.9854 O.3     1  UNL1       -0.3112
      5 C          19.7562   70.8321   -3.7927 C.3     1  UNL1        0.1811
      6 O          17.9665   71.7288   -5.1235 O.3     1  UNL1       -0.3308
      7 O          16.1070   70.4649   -3.1395 O.3     1  UNL1       -0.3794
      8 O          16.0443   68.7039   -5.2207 O.3     1  UNL1       -0.3779
      9 C          17.3605   69.9910   -3.6322 C.3     1  UNL1        0.1713
     10 C          17.2085   69.4852   -5.0511 C.3     1  UNL1        0.1895
     11 C          18.2765   71.1929   -3.8188 C.3     1  UNL1        0.1764
     12 C          17.1646   70.7799   -5.8446 C.3     1  UNL1        0.2383
     13 H          15.5047   69.7146   -3.0124 H       1  UNL1        0.2105
     14 H          16.1212   67.8910   -4.6960 H       1  UNL1        0.2106
     15 O          15.5961   70.6543   -8.1898 O.2     1  UNL1       -0.2464
     16 O          19.3164   70.2008  -10.8727 O.2     1  UNL1       -0.2670
     17 N          17.6975   70.6293   -7.1691 N.ar    1  UNL1       -0.2551
     18 N          17.4504   70.4275   -9.5237 N.ar    1  UNL1       -0.2743
     19 C          16.8228   70.5770   -8.2800 C.ar    1  UNL1        0.3323
     20 C          19.0711   70.5369   -7.3577 C.ar    1  UNL1        0.0869
     21 C          19.6546   70.3947   -8.5493 C.ar    1  UNL1        0.0795
     22 C          18.8119   70.3306   -9.7614 C.ar    1  UNL1        0.2626
     23 H          16.8619   70.3865  -10.3119 H       1  UNL1        0.1734
     24 O          21.9607   72.3172   -3.3096 O.3     1  UNL1       -0.2703
     25 P          23.3970   72.1426   -2.5882 P.3     1  UNL1        0.2208
     26 O          24.1394   73.5475   -2.8974 O.co2   1  UNL1       -0.4371
     27 O          24.1631   70.9285   -3.0273 O.2     1  UNL1       -0.5170
     28 O          23.0707   72.1935   -1.0091 O.3     1  UNL1       -0.2858
     29 O          23.9761   70.6760    0.5678 O.3     1  UNL1       -0.3226
     30 O          20.5811   71.9913    2.5202 O.3     1  UNL1       -0.3794
     31 O          20.5015   71.3699   -0.3333 O.3     1  UNL1       -0.3775
     32 O          23.1972   72.9758    3.3185 O.3     1  UNL1       -0.3792
     33 C          21.7040   72.0958    1.6449 C.3     1  UNL1        0.1718
     34 C          21.5849   71.0532    0.5330 C.3     1  UNL1        0.1968
     35 C          22.9703   71.8526    2.4692 C.3     1  UNL1        0.1723
     36 C          22.8734   70.9789   -0.2876 C.3     1  UNL1        0.2706
     37 C          24.1908   71.6643    1.5728 C.3     1  UNL1        0.1830
     38 H          19.7646   72.1421    2.0183 H       1  UNL1        0.2105
     39 H          19.6807   71.4190    0.1808 H       1  UNL1        0.2106
     40 H          22.4276   73.1067    3.8941 H       1  UNL1        0.2106
     41 O          25.0879   69.8301    2.7270 O.co2   1  UNL1       -0.5466
     42 O          26.3674   71.7139    2.6127 O.co2   1  UNL1       -0.5466
     43 C          25.3392   71.1083    2.3503 C.2     1  UNL1        0.0799
@<TRIPOS>UNITY_ATOM_ATTR
2 1
charge -1
26 1
charge -1
41 1
charge -1
@<TRIPOS>BOND
     1     1     4    1
     2     1    24    1
     3     1     2    1
     4     1     3    2
     5    25    28    1
     6    25    24    1
     7    25    26    1
     8    25    27    2
     9     6    11    1
    10     6    12    1
    11    29    36    1
    12    29    37    1
    13     7     9    1
    14     7    13    1
    15     8    10    1
    16     8    14    1
    17     4     5    1
    18    28    36    1
    19    30    33    1
    20    30    38    1
    21    31    34    1
    22    31    39    1
    23    32    35    1
    24    32    40    1
    25    41    43   ar
    26    15    19    2
    27    42    43   ar
    28    16    22    2
    29    17    12    1
    30    17    19   ar
    31    17    20   ar
    32    18    19   ar
    33    18    22   ar
    34    18    23    1
    35     9    10    1
    36     9    11    1
    37    10    12    1
    38    11     5    1
    39    33    34    1
    40    33    35    1
    41    34    36    1
    42    35    37    1
    43    37    43    1
    44    20    21   ar
    45    21    22   ar
@<TRIPOS>MOLECULE
*****
 43 45 0 0 0
SMALL
GASTEIGER

@<TRIPOS>ATOM
      1 P          21.9234   72.5454   -5.8665 P.3     1  UNL1        0.2189
      2 O          21.3489   74.0003   -5.4517 O.co2   1  UNL1       -0.4371
      3 O          23.0776   72.5698   -6.8251 O.2     1  UNL1       -0.5170
      4 O          20.6129   71.7379   -6.3650 O.3     1  UNL1       -0.3112
      5 C          20.0538   72.0675   -7.6232 C.3     1  UNL1        0.1811
      6 O          18.9204   69.9982   -7.1637 O.3     1  UNL1       -0.3308
      7 O          18.1089   70.0169  -10.0503 O.3     1  UNL1       -0.3794
      8 O          15.8565   70.9004   -8.7925 O.3     1  UNL1       -0.3779
      9 C          18.2530   71.1116   -9.1451 C.3     1  UNL1        0.1713
     10 C          17.0995   71.1364   -8.1648 C.3     1  UNL1        0.1895
     11 C          19.4378   70.8161   -8.2355 C.3     1  UNL1        0.1764
     12 C          17.4847   70.0312   -7.1963 C.3     1  UNL1        0.2383
     13 H          17.3579   70.1829  -10.6420 H       1  UNL1        0.2105
     14 H          15.6563   71.6316   -9.3985 H       1  UNL1        0.2106
     15 O          16.2856   68.0642   -5.5625 O.2     1  UNL1       -0.2464
     16 O          15.6342   71.0593   -2.1203 O.2     1  UNL1       -0.2670
     17 N          16.9929   70.2697   -5.8689 N.ar    1  UNL1       -0.2551
     18 N          15.9614   69.5580   -3.8500 N.ar    1  UNL1       -0.2743
     19 C          16.4075   69.2127   -5.1326 C.ar    1  UNL1        0.3323
     20 C          17.0941   71.5375   -5.3091 C.ar    1  UNL1        0.0869
     21 C          16.6644   71.8513   -4.0853 C.ar    1  UNL1        0.0795
     22 C          16.0396   70.8046   -3.2504 C.ar    1  UNL1        0.2626
     23 H          15.5483   68.8392   -3.3191 H       1  UNL1        0.1734
     24 O          22.2490   71.8630   -4.4378 O.3     1  UNL1       -0.2703
     25 P          23.4987   72.0546   -3.4302 P.3     1  UNL1        0.2208
     26 O          24.4644   73.0790   -4.2292 O.co2   1  UNL1       -0.4371
     27 O          24.1620   70.7715   -3.0208 O.2     1  UNL1       -0.5170
     28 O          22.9078   72.9231   -2.2058 O.3     1  UNL1       -0.2858
     29 O          21.2276   72.0659   -0.7737 O.3     1  UNL1       -0.3226
     30 O          20.8825   76.1329   -0.1344 O.3     1  UNL1       -0.3794
     31 O          21.2758   75.0862   -2.8333 O.3     1  UNL1       -0.3775
     32 O          22.1682   74.4470    1.8546 O.3     1  UNL1       -0.3792
     33 C          21.5631   74.9134   -0.4305 C.3     1  UNL1        0.1718
     34 C          20.9699   74.2901   -1.6943 C.3     1  UNL1        0.1968
     35 C          21.3848   73.9708    0.7619 C.3     1  UNL1        0.1723
     36 C          21.5123   72.8772   -1.9139 C.3     1  UNL1        0.2706
     37 C          21.8327   72.5521    0.4224 C.3     1  UNL1        0.1830
     38 H          20.9820   76.7477   -0.8783 H       1  UNL1        0.2105
     39 H          20.9348   75.9842   -2.7007 H       1  UNL1        0.2106
     40 H          21.8932   75.3493    2.0806 H       1  UNL1        0.2106
     41 O          21.5772   70.3078    1.0542 O.co2   1  UNL1       -0.5466
     42 O          20.8426   71.8913    2.5211 O.co2   1  UNL1       -0.5466
     43 C          21.3573   71.5840    1.4563 C.2     1  UNL1        0.0799
@<TRIPOS>UNITY_ATOM_ATTR
2 1
charge -1
26 1
charge -1
41 1
charge -1
@<TRIPOS>BOND
     1     1     4    1
     2     1    24    1
     3     1     2    1
     4     1     3    2
     5    25    28    1
     6    25    24    1
     7    25    26    1
     8    25    27    2
     9     6    11    1
    10     6    12    1
    11    29    36    1
    12    29    37    1
    13     7     9    1
    14     7    13    1
    15     8    10    1
    16     8    14    1
    17     4     5    1
    18    28    36    1
    19    30    33    1
    20    30    38    1
    21    31    34    1
    22    31    39    1
    23    32    35    1
    24    32    40    1
    25    41    43   ar
    26    15    19    2
    27    42    43   ar
    28    16    22    2
    29    17    12    1
    30    17    19   ar
    31    17    20   ar
    32    18    19   ar
    33    18    22   ar
    34    18    23    1
    35     9    10    1
    36     9    11    1
    37    10    12    1
    38    11     5    1
    39    33    34    1
    40    33    35    1
    41    34    36    1
    42    35    37    1
    43    37    43    1
    44    20    21   ar
    45    21    22   ar
@<TRIPOS>MOLECULE
*****
 43 45 0 0 0
SMALL
GASTEIGER

@<TRIPOS>ATOM
      1 P          20.1118   70.2699   -3.0805 P.3     1  UNL1        0.2189
      2 O          19.8343   68.7732   -3.6299 O.co2   1  UNL1       -0.4371
      3 O          19.7512   70.4934   -1.6412 O.2     1  UNL1       -0.5170
      4 O          19.3583   71.2222   -4.1498 O.3     1  UNL1       -0.3112
      5 C          18.7591   72.4180   -3.6855 C.3     1  UNL1        0.1811
      6 O          17.0122   72.5521   -5.3312 O.3     1  UNL1       -0.3308
      7 O          15.2697   71.1642   -3.3239 O.3     1  UNL1       -0.3794
      8 O          15.9609   69.1392   -5.0143 O.3     1  UNL1       -0.3779
      9 C          16.6604   70.9830   -3.5920 C.3     1  UNL1        0.1713
     10 C          16.8499   70.2297   -4.8915 C.3     1  UNL1        0.1895
     11 C          17.2563   72.3445   -3.9231 C.3     1  UNL1        0.1764
     12 C          16.5923   71.3133   -5.9246 C.3     1  UNL1        0.2383
     13 H          14.8671   70.3077   -3.1097 H       1  UNL1        0.2105
     14 H          16.1659   68.4769   -4.3351 H       1  UNL1        0.2106
     15 O          15.4388   70.5313   -8.3812 O.2     1  UNL1       -0.2464
     16 O          19.5270   70.5312  -10.5098 O.2     1  UNL1       -0.2670
     17 N          17.3320   71.1018   -7.1366 N.ar    1  UNL1       -0.2551
     18 N          17.4762   70.5310   -9.4388 N.ar    1  UNL1       -0.2743
     19 C          16.6566   70.7098   -8.3166 C.ar    1  UNL1        0.3323
     20 C          18.7096   71.2840   -7.1492 C.ar    1  UNL1        0.0869
     21 C          19.4774   71.1099   -8.2267 C.ar    1  UNL1        0.0795
     22 C          18.8500   70.6995   -9.5000 C.ar    1  UNL1        0.2626
     23 H          17.0288   70.2561  -10.2716 H       1  UNL1        0.1734
     24 O          21.6739   70.4996   -3.4268 O.3     1  UNL1       -0.2703
     25 P          22.7895   71.4373   -2.7268 P.3     1  UNL1        0.2208
     26 O          22.6020   72.8589   -3.4780 O.co2   1  UNL1       -0.4371
     27 O          24.1842   70.8850   -2.7876 O.2     1  UNL1       -0.5170
     28 O          22.2338   71.6894   -1.2335 O.3     1  UNL1       -0.2858
     29 O          23.8659   72.7512    0.1148 O.3     1  UNL1       -0.3226
     30 O          20.8498   72.0420    2.8476 O.3     1  UNL1       -0.3794
     31 O          21.5749   70.0070    0.8811 O.3     1  UNL1       -0.3775
     32 O          21.2740   74.7225    1.8054 O.3     1  UNL1       -0.3792
     33 C          21.4040   72.3288    1.5636 C.3     1  UNL1        0.1718
     34 C          22.3274   71.1870    1.1381 C.3     1  UNL1        0.1968
     35 C          22.1900   73.6376    1.6694 C.3     1  UNL1        0.1723
     36 C          23.1145   71.5594   -0.1190 C.3     1  UNL1        0.2706
     37 C          23.0464   73.8750    0.4290 C.3     1  UNL1        0.1830
     38 H          20.3457   71.2141    2.8048 H       1  UNL1        0.2105
     39 H          21.0727   69.7650    1.6746 H       1  UNL1        0.2106
     40 H          20.7226   74.5836    2.5913 H       1  UNL1        0.2106
     41 O          23.4641   76.1797    0.5519 O.co2   1  UNL1       -0.5466
     42 O          25.2215   74.7817    0.9466 O.co2   1  UNL1       -0.5466
     43 C          24.0441   74.9600    0.6729 C.2     1  UNL1        0.0799
@<TRIPOS>UNITY_ATOM_ATTR
2 1
charge -1
26 1
charge -1
41 1
charge -1
@<TRIPOS>BOND
     1     1     4    1
     2     1    24    1
     3     1     2    1
     4     1     3    2
     5    25    28    1
     6    25    24    1
     7    25    26    1
     8    25    27    2
     9     6    11    1
    10     6    12    1
    11    29    36    1
    12    29    37    1
    13     7     9    1
    14     7    13    1
    15     8    10    1
    16     8    14    1
    17     4     5    1
    18    28    36    1
    19    30    33    1
    20    30    38    1
    21    31    34    1
    22    31    39    1
    23    32    35    1
    24    32    40    1
    25    41    43   ar
    26    15    19    2
    27    42    43   ar
    28    16    22    2
    29    17    12    1
    30    17    19   ar
    31    17    20   ar
    32    18    19   ar
    33    18    22   ar
    34    18    23    1
    35     9    10    1
    36     9    11    1
    37    10    12    1
    38    11     5    1
    39    33    34    1
    40    33    35    1
    41    34    36    1
    42    35    37    1
    43    37    43    1
    44    20    21   ar
    45    21    22   ar
@<TRIPOS>MOLECULE
*****
 43 45 0 0 0
SMALL
GASTEIGER

@<TRIPOS>ATOM
      1 P          21.7062   71.8920   -2.5500 P.3     1  UNL1        0.2189
      2 O          22.0646   73.1944   -3.4412 O.co2   1  UNL1       -0.4371
      3 O          22.4068   70.6304   -2.9615 O.2     1  UNL1       -0.5170
      4 O          20.0893   71.8377   -2.5740 O.3     1  UNL1       -0.3112
      5 C          19.4581   70.8251   -3.3361 C.3     1  UNL1        0.1811
      6 O          17.7002   71.7394   -4.6967 O.3     1  UNL1       -0.3308
      7 O          15.8010   70.2551   -2.9131 O.3     1  UNL1       -0.3794
      8 O          15.9289   68.6503   -5.1141 O.3     1  UNL1       -0.3779
      9 C          17.0992   69.8727   -3.3681 C.3     1  UNL1        0.1713
     10 C          17.0450   69.4662   -4.8255 C.3     1  UNL1        0.1895
     11 C          17.9665   71.1231   -3.4182 C.3     1  UNL1        0.1764
     12 C          16.9820   70.8125   -5.5264 C.3     1  UNL1        0.2383
     13 H          15.2287   69.4725   -2.8729 H       1  UNL1        0.2105
     14 H          16.0163   67.8052   -4.6449 H       1  UNL1        0.2106
     15 O          15.5988   70.2332   -7.9197 O.2     1  UNL1       -0.2464
     16 O          19.4142   70.7248  -10.4584 O.2     1  UNL1       -0.2670
     17 N          17.5894   70.7823   -6.8268 N.ar    1  UNL1       -0.2551
     18 N          17.5006   70.4776   -9.1817 N.ar    1  UNL1       -0.2743
     19 C          16.8054   70.4801   -7.9653 C.ar    1  UNL1        0.3323
     20 C          18.9456   71.0515   -6.9652 C.ar    1  UNL1        0.0869
     21 C          19.5943   71.0454   -8.1314 C.ar    1  UNL1        0.0795
     22 C          18.8483   70.7383   -9.3694 C.ar    1  UNL1        0.2626
     23 H          16.9763   70.2679   -9.9882 H       1  UNL1        0.1734
     24 O          22.0310   72.3821   -1.0443 O.3     1  UNL1       -0.2703
     25 P          22.2501   71.5439    0.3207 P.3     1  UNL1        0.2208
     26 O          23.6716   70.8082    0.0788 O.co2   1  UNL1       -0.4371
     27 O          21.1219   70.6133    0.6598 O.2     1  UNL1       -0.5170
     28 O          22.5561   72.6619    1.4428 O.3     1  UNL1       -0.2858
     29 O          21.2225   73.5278    3.1980 O.3     1  UNL1       -0.3226
     30 O          23.4044   76.8533    2.0809 O.3     1  UNL1       -0.3794
     31 O          22.2980   75.0599    0.0575 O.3     1  UNL1       -0.3775
     32 O          24.0780   75.4169    4.5168 O.3     1  UNL1       -0.3792
     33 C          23.1644   75.4614    2.2878 C.3     1  UNL1        0.1718
     34 C          21.9712   75.0164    1.4417 C.3     1  UNL1        0.1968
     35 C          22.8717   75.2479    3.7747 C.3     1  UNL1        0.1723
     36 C          21.5409   73.5952    1.8075 C.3     1  UNL1        0.2706
     37 C          22.3281   73.8469    4.0399 C.3     1  UNL1        0.1830
     38 H          23.5927   77.0132    1.1426 H       1  UNL1        0.2105
     39 H          22.5722   75.9588   -0.1814 H       1  UNL1        0.2106
     40 H          24.4345   76.3047    4.3567 H       1  UNL1        0.2106
     41 O          22.6655   73.3050    6.2969 O.co2   1  UNL1       -0.5466
     42 O          20.5929   74.0479    5.7042 O.co2   1  UNL1       -0.5466
     43 C          21.7427   73.7560    5.4115 C.2     1  UNL1        0.0799
@<TRIPOS>UNITY_ATOM_ATTR
2 1
charge -1
26 1
charge -1
41 1
charge -1
@<TRIPOS>BOND
     1     1     4    1
     2     1    24    1
     3     1     2    1
     4     1     3    2
     5    25    28    1
     6    25    24    1
     7    25    26    1
     8    25    27    2
     9     6    11    1
    10     6    12    1
    11    29    36    1
    12    29    37    1
    13     7     9    1
    14     7    13    1
    15     8    10    1
    16     8    14    1
    17     4     5    1
    18    28    36    1
    19    30    33    1
    20    30    38    1
    21    31    34    1
    22    31    39    1
    23    32    35    1
    24    32    40    1
    25    41    43   ar
    26    15    19    2
    27    42    43   ar
    28    16    22    2
    29    17    12    1
    30    17    19   ar
    31    17    20   ar
    32    18    19   ar
    33    18    22   ar
    34    18    23    1
    35     9    10    1
    36     9    11    1
    37    10    12    1
    38    11     5    1
    39    33    34    1
    40    33    35    1
    41    34    36    1
    42    35    37    1
    43    37    43    1
    44    20    21   ar
    45    21    22   ar
@<TRIPOS>MOLECULE
*****
 43 45 0 0 0
SMALL
GASTEIGER

@<TRIPOS>ATOM
      1 P          21.4324   71.2297   -1.2483 P.3     1  UNL1        0.2189
      2 O          22.9840   70.9530   -1.6156 O.co2   1  UNL1       -0.4371
      3 O          20.9356   70.5218   -0.0220 O.2     1  UNL1       -0.5170
      4 O          20.6428   70.8958   -2.6206 O.3     1  UNL1       -0.3112
      5 C          20.5343   71.9103   -3.6022 C.3     1  UNL1        0.1811
      6 O          20.8579   70.7348   -5.6737 O.3     1  UNL1       -0.3308
      7 O          23.1662   72.5885   -6.1499 O.3     1  UNL1       -0.3794
      8 O          21.2021   73.6722   -7.7004 O.3     1  UNL1       -0.3779
      9 C          21.9103   72.8516   -5.5239 C.3     1  UNL1        0.1713
     10 C          20.8126   72.9301   -6.5637 C.3     1  UNL1        0.1895
     11 C          21.5114   71.6136   -4.7324 C.3     1  UNL1        0.1764
     12 C          20.5700   71.4637   -6.8775 C.3     1  UNL1        0.2383
     13 H          23.4418   73.3656   -6.6617 H       1  UNL1        0.2105
     14 H          21.3441   74.5987   -7.4487 H       1  UNL1        0.2106
     15 O          19.7560   70.8586   -9.5134 O.2     1  UNL1       -0.2464
     16 O          15.3370   70.4852   -8.2579 O.2     1  UNL1       -0.2670
     17 N          19.2130   71.2039   -7.2675 N.ar    1  UNL1       -0.2551
     18 N          17.5557   70.6742   -8.8858 N.ar    1  UNL1       -0.2743
     19 C          18.9107   70.9099   -8.6181 C.ar    1  UNL1        0.3323
     20 C          18.1994   71.2401   -6.3176 C.ar    1  UNL1        0.0869
     21 C          16.9125   71.0132   -6.5879 C.ar    1  UNL1        0.0795
     22 C          16.5118   70.6996   -7.9752 C.ar    1  UNL1        0.2626
     23 H          17.3204   70.4694   -9.8196 H       1  UNL1        0.1734
     24 O          21.3599   72.8426   -1.1706 O.3     1  UNL1       -0.2703
     25 P          22.5082   73.9665   -1.3489 P.3     1  UNL1        0.2208
     26 O          21.6996   75.3554   -1.1557 O.co2   1  UNL1       -0.4371
     27 O          23.2705   73.8689   -2.6386 O.2     1  UNL1       -0.5170
     28 O          23.4173   73.8368   -0.0225 O.3     1  UNL1       -0.2858
     29 O          23.5779   72.1007    1.5804 O.3     1  UNL1       -0.3226
     30 O          24.2184   75.4543    3.9065 O.3     1  UNL1       -0.3794
     31 O          22.1443   75.4531    1.8491 O.3     1  UNL1       -0.3775
     32 O          26.4501   73.7460    3.1634 O.3     1  UNL1       -0.3792
     33 C          24.2669   74.6633    2.7191 C.3     1  UNL1        0.1718
     34 C          22.8460   74.2965    2.2901 C.3     1  UNL1        0.1968
     35 C          25.0734   73.3993    3.0255 C.3     1  UNL1        0.1723
     36 C          22.8645   73.2647    1.1615 C.3     1  UNL1        0.2706
     37 C          24.9395   72.3685    1.9084 C.3     1  UNL1        0.1830
     38 H          23.7106   76.2632    3.7358 H       1  UNL1        0.2105
     39 H          22.1290   76.1122    2.5603 H       1  UNL1        0.2106
     40 H          26.5491   74.4016    3.8713 H       1  UNL1        0.2106
     41 O          26.8018   71.0127    2.3500 O.co2   1  UNL1       -0.5466
     42 O          24.7425   70.0907    2.6793 O.co2   1  UNL1       -0.5466
     43 C          25.4459   71.0352    2.3533 C.2     1  UNL1        0.0799
@<TRIPOS>UNITY_ATOM_ATTR
2 1
charge -1
26 1
charge -1
41 1
charge -1
@<TRIPOS>BOND
     1     1     4    1
     2     1    24    1
     3     1     2    1
     4     1     3    2
     5    25    28    1
     6    25    24    1
     7    25    26    1
     8    25    27    2
     9     6    11    1
    10     6    12    1
    11    29    36    1
    12    29    37    1
    13     7     9    1
    14     7    13    1
    15     8    10    1
    16     8    14    1
    17     4     5    1
    18    28    36    1
    19    30    33    1
    20    30    38    1
    21    31    34    1
    22    31    39    1
    23    32    35    1
    24    32    40    1
    25    41    43   ar
    26    15    19    2
    27    42    43   ar
    28    16    22    2
    29    17    12    1
    30    17    19   ar
    31    17    20   ar
    32    18    19   ar
    33    18    22   ar
    34    18    23    1
    35     9    10    1
    36     9    11    1
    37    10    12    1
    38    11     5    1
    39    33    34    1
    40    33    35    1
    41    34    36    1
    42    35    37    1
    43    37    43    1
    44    20    21   ar
    45    21    22   ar
@<TRIPOS>MOLECULE
*****
 43 45 0 0 0
SMALL
GASTEIGER

@<TRIPOS>ATOM
      1 P          22.8968   72.4756   -3.2670 P.3     1  UNL1        0.2189
      2 O          23.4350   73.8836   -3.8557 O.co2   1  UNL1       -0.4371
      3 O          23.8618   71.3319   -3.3787 O.2     1  UNL1       -0.5170
      4 O          21.4711   72.2664   -4.0028 O.3     1  UNL1       -0.3112
      5 C          20.7822   71.0450   -3.8074 C.3     1  UNL1        0.1811
      6 O          18.7497   71.8622   -4.7969 O.3     1  UNL1       -0.3308
      7 O          17.3235   70.5168   -2.5281 O.3     1  UNL1       -0.3794
      8 O          16.9734   68.7554   -4.5801 O.3     1  UNL1       -0.3779
      9 C          18.4905   70.0989   -3.2365 C.3     1  UNL1        0.1713
     10 C          18.1143   69.5872   -4.6109 C.3     1  UNL1        0.1895
     11 C          19.3065   71.3401   -3.5710 C.3     1  UNL1        0.1764
     12 C          17.8757   70.8790   -5.3739 C.3     1  UNL1        0.2383
     13 H          16.7860   69.7407   -2.3034 H       1  UNL1        0.2105
     14 H          17.1763   67.9465   -4.0836 H       1  UNL1        0.2106
     15 O          15.9950   70.1340   -7.3448 O.2     1  UNL1       -0.2464
     16 O          19.1320   70.4253  -10.7090 O.2     1  UNL1       -0.2670
     17 N          18.1741   70.7525   -6.7724 N.ar    1  UNL1       -0.2551
     18 N          17.5595   70.2788   -9.0183 N.ar    1  UNL1       -0.2743
     19 C          17.1570   70.3721   -7.6796 C.ar    1  UNL1        0.3323
     20 C          19.4606   71.0054   -7.2328 C.ar    1  UNL1        0.0869
     21 C          19.8291   70.9124   -8.5120 C.ar    1  UNL1        0.0795
     22 C          18.8266   70.5197   -9.5241 C.ar    1  UNL1        0.2626
     23 H          16.8691   70.0136   -9.6683 H       1  UNL1        0.1734
     24 O          22.4727   72.8534   -1.7536 O.3     1  UNL1       -0.2703
     25 P          23.3260   72.8523   -0.3805 P.3     1  UNL1        0.2208
     26 O          24.3349   74.1038   -0.5711 O.co2   1  UNL1       -0.4371
     27 O          24.0074   71.5488   -0.0800 O.2     1  UNL1       -0.5170
     28 O          22.2829   73.3388    0.7500 O.3     1  UNL1       -0.2858
     29 O          21.6640   75.3192    1.8919 O.3     1  UNL1       -0.3226
     30 O          22.1056   72.6511    5.0150 O.3     1  UNL1       -0.3794
     31 O          24.0280   72.6878    2.8156 O.3     1  UNL1       -0.3775
     32 O          19.4498   73.4172    4.1149 O.3     1  UNL1       -0.3792
     33 C          21.7926   73.0577    3.6829 C.3     1  UNL1        0.1718
     34 C          23.0298   73.6781    3.0331 C.3     1  UNL1        0.1968
     35 C          20.6589   74.0830    3.7555 C.3     1  UNL1        0.1723
     36 C          22.6763   74.3311    1.6962 C.3     1  UNL1        0.2706
     37 C          20.4515   74.7802    2.4140 C.3     1  UNL1        0.1830
     38 H          22.8240   71.9993    4.9940 H       1  UNL1        0.2105
     39 H          24.2570   72.2691    3.6598 H       1  UNL1        0.2106
     40 H          19.5683   72.9691    4.9670 H       1  UNL1        0.2106
     41 O          19.8832   76.9155    1.6272 O.co2   1  UNL1       -0.5466
     42 O          18.7298   76.1306    3.4307 O.co2   1  UNL1       -0.5466
     43 C          19.5879   75.9891    2.5724 C.2     1  UNL1        0.0799
@<TRIPOS>UNITY_ATOM_ATTR
2 1
charge -1
26 1
charge -1
41 1
charge -1
@<TRIPOS>BOND
     1     1     4    1
     2     1    24    1
     3     1     2    1
     4     1     3    2
     5    25    28    1
     6    25    24    1
     7    25    26    1
     8    25    27    2
     9     6    11    1
    10     6    12    1
    11    29    36    1
    12    29    37    1
    13     7     9    1
    14     7    13    1
    15     8    10    1
    16     8    14    1
    17     4     5    1
    18    28    36    1
    19    30    33    1
    20    30    38    1
    21    31    34    1
    22    31    39    1
    23    32    35    1
    24    32    40    1
    25    41    43   ar
    26    15    19    2
    27    42    43   ar
    28    16    22    2
    29    17    12    1
    30    17    19   ar
    31    17    20   ar
    32    18    19   ar
    33    18    22   ar
    34    18    23    1
    35     9    10    1
    36     9    11    1
    37    10    12    1
    38    11     5    1
    39    33    34    1
    40    33    35    1
    41    34    36    1
    42    35    37    1
    43    37    43    1
    44    20    21   ar
    45    21    22   ar
@<TRIPOS>MOLECULE
*****
 43 45 0 0 0
SMALL
GASTEIGER

@<TRIPOS>ATOM
      1 P          22.7508   72.4279   -4.1832 P.3     1  UNL1        0.2189
      2 O          23.1354   73.3628   -5.4469 O.co2   1  UNL1       -0.4371
      3 O          23.8710   71.5775   -3.6601 O.2     1  UNL1       -0.5170
      4 O          21.4338   71.6287   -4.6777 O.3     1  UNL1       -0.3112
      5 C          20.8377   70.6960   -3.7949 C.3     1  UNL1        0.1811
      6 O          18.8792   71.7057   -4.7552 O.3     1  UNL1       -0.3308
      7 O          17.3464   70.4100   -2.5273 O.3     1  UNL1       -0.3794
      8 O          16.8567   68.7478   -4.6328 O.3     1  UNL1       -0.3779
      9 C          18.4764   69.9213   -3.2503 C.3     1  UNL1        0.1713
     10 C          18.0613   69.4851   -4.6393 C.3     1  UNL1        0.1895
     11 C          19.3907   71.1021   -3.5471 C.3     1  UNL1        0.1764
     12 C          17.9289   70.8152   -5.3613 C.3     1  UNL1        0.2383
     13 H          16.7476   69.6734   -2.3261 H       1  UNL1        0.2105
     14 H          16.9929   67.9101   -4.1621 H       1  UNL1        0.2106
     15 O          16.0138   70.1891   -7.3404 O.2     1  UNL1       -0.2464
     16 O          19.1487   70.4330  -10.7105 O.2     1  UNL1       -0.2670
     17 N          18.2174   70.7086   -6.7635 N.ar    1  UNL1       -0.2551
     18 N          17.5772   70.3102   -9.0169 N.ar    1  UNL1       -0.2743
     19 C          17.1832   70.3889   -7.6747 C.ar    1  UNL1        0.3323
     20 C          19.5113   70.9212   -7.2236 C.ar    1  UNL1        0.0869
     21 C          19.8716   70.8428   -8.5060 C.ar    1  UNL1        0.0795
     22 C          18.8512   70.5126   -9.5225 C.ar    1  UNL1        0.2626
     23 H          16.8748   70.0869   -9.6697 H       1  UNL1        0.1734
     24 O          22.1545   73.4865   -3.1169 O.3     1  UNL1       -0.2703
     25 P          22.8936   74.4371   -2.0382 P.3     1  UNL1        0.2208
     26 O          22.0751   75.8292   -2.1499 O.co2   1  UNL1       -0.4371
     27 O          24.3741   74.5716   -2.2482 O.2     1  UNL1       -0.5170
     28 O          22.4733   73.8316   -0.6032 O.3     1  UNL1       -0.2858
     29 O          23.5273   73.6864    1.5127 O.3     1  UNL1       -0.3226
     30 O          21.6693   70.0061    1.2446 O.3     1  UNL1       -0.3794
     31 O          23.0344   71.1481   -1.0721 O.3     1  UNL1       -0.3775
     32 O          20.5571   72.0816    2.9494 O.3     1  UNL1       -0.3792
     33 C          21.8262   71.4065    1.0159 C.3     1  UNL1        0.1718
     34 C          23.1272   71.6579    0.2531 C.3     1  UNL1        0.1968
     35 C          21.8629   72.1067    2.3761 C.3     1  UNL1        0.1723
     36 C          23.4446   73.1526    0.1907 C.3     1  UNL1        0.2706
     37 C          22.3092   73.5598    2.2429 C.3     1  UNL1        0.1830
     38 H          21.6434   69.5403    0.3940 H       1  UNL1        0.2105
     39 H          22.8329   70.2001   -1.0399 H       1  UNL1        0.2106
     40 H          20.2611   71.1622    3.0395 H       1  UNL1        0.2106
     41 O          23.0084   73.1492    4.4438 O.co2   1  UNL1       -0.5466
     42 O          22.6344   75.3212    3.8594 O.co2   1  UNL1       -0.5466
     43 C          22.6575   74.1324    3.5782 C.2     1  UNL1        0.0799
@<TRIPOS>UNITY_ATOM_ATTR
2 1
charge -1
26 1
charge -1
41 1
charge -1
@<TRIPOS>BOND
     1     1     4    1
     2     1    24    1
     3     1     2    1
     4     1     3    2
     5    25    28    1
     6    25    24    1
     7    25    26    1
     8    25    27    2
     9     6    11    1
    10     6    12    1
    11    29    36    1
    12    29    37    1
    13     7     9    1
    14     7    13    1
    15     8    10    1
    16     8    14    1
    17     4     5    1
    18    28    36    1
    19    30    33    1
    20    30    38    1
    21    31    34    1
    22    31    39    1
    23    32    35    1
    24    32    40    1
    25    41    43   ar
    26    15    19    2
    27    42    43   ar
    28    16    22    2
    29    17    12    1
    30    17    19   ar
    31    17    20   ar
    32    18    19   ar
    33    18    22   ar
    34    18    23    1
    35     9    10    1
    36     9    11    1
    37    10    12    1
    38    11     5    1
    39    33    34    1
    40    33    35    1
    41    34    36    1
    42    35    37    1
    43    37    43    1
    44    20    21   ar
    45    21    22   ar
@<TRIPOS>MOLECULE
*****
 43 45 0 0 0
SMALL
GASTEIGER

@<TRIPOS>ATOM
      1 P          20.9804   71.6204   -0.5599 P.3     1  UNL1        0.2189
      2 O          19.5230   72.2013   -0.9566 O.co2   1  UNL1       -0.4371
      3 O          20.9598   70.3632    0.2592 O.2     1  UNL1       -0.5170
      4 O          21.7328   72.8850    0.1128 O.3     1  UNL1       -0.3112
      5 C          20.9769   74.0472    0.3997 C.3     1  UNL1        0.1811
      6 O          21.3954   73.0193    2.5317 O.3     1  UNL1       -0.3308
      7 O          20.2290   75.4996    3.7477 O.3     1  UNL1       -0.3794
      8 O          22.9113   75.9038    4.0269 O.3     1  UNL1       -0.3779
      9 C          21.0358   75.3601    2.5781 C.3     1  UNL1        0.1713
     10 C          22.4738   75.0843    2.9632 C.3     1  UNL1        0.1895
     11 C          20.6376   74.0644    1.8846 C.3     1  UNL1        0.1764
     12 C          22.4228   73.6137    3.3408 C.3     1  UNL1        0.2383
     13 H          20.4653   76.3207    4.2078 H       1  UNL1        0.2105
     14 H          22.9267   76.8298    3.7364 H       1  UNL1        0.2106
     15 O          24.9705   74.7173    3.8581 O.2     1  UNL1       -0.2464
     16 O          27.1198   70.9366    2.3316 O.2     1  UNL1       -0.2670
     17 N          23.6647   72.9396    3.0880 N.ar    1  UNL1       -0.2551
     18 N          26.0385   72.8337    3.0964 N.ar    1  UNL1       -0.2743
     19 C          24.8899   73.5828    3.3835 C.ar    1  UNL1        0.3323
     20 C          23.6614   71.6561    2.5553 C.ar    1  UNL1        0.0869
     21 C          24.7644   70.9546    2.2872 C.ar    1  UNL1        0.0795
     22 C          26.0857   71.5546    2.5659 C.ar    1  UNL1        0.2626
     23 H          26.9035   73.2614    3.2917 H       1  UNL1        0.1734
     24 O          21.7167   71.4790   -1.9919 O.3     1  UNL1       -0.2703
     25 P          21.6332   72.3926   -3.3231 P.3     1  UNL1        0.2208
     26 O          22.8737   71.8594   -4.2160 O.co2   1  UNL1       -0.4371
     27 O          21.6521   73.8702   -3.0582 O.2     1  UNL1       -0.5170
     28 O          20.3189   71.8680   -4.0977 O.3     1  UNL1       -0.2858
     29 O          19.3406   69.7115   -4.1319 O.3     1  UNL1       -0.3226
     30 O          18.4268   71.1091   -7.9107 O.3     1  UNL1       -0.3794
     31 O          21.0711   71.5739   -6.7592 O.3     1  UNL1       -0.3775
     32 O          16.3753   71.0179   -5.8530 O.3     1  UNL1       -0.3792
     33 C          18.6851   71.2118   -6.5104 C.3     1  UNL1        0.1718
     34 C          20.0934   70.6976   -6.2108 C.3     1  UNL1        0.1968
     35 C          17.6424   70.3678   -5.7740 C.3     1  UNL1        0.1723
     36 C          20.3225   70.5767   -4.7036 C.3     1  UNL1        0.2706
     37 C          18.0081   70.1891   -4.3034 C.3     1  UNL1        0.1830
     38 H          19.0773   71.6376   -8.3993 H       1  UNL1        0.2105
     39 H          20.9316   71.6555   -7.7154 H       1  UNL1        0.2106
     40 H          16.1309   71.1379   -6.7840 H       1  UNL1        0.2106
     41 O          16.3896   68.5185   -4.6048 O.co2   1  UNL1       -0.5466
     42 O          17.2133   68.8004   -2.4974 O.co2   1  UNL1       -0.5466
     43 C          17.1826   69.1119   -3.6786 C.2     1  UNL1        0.0799
@<TRIPOS>UNITY_ATOM_ATTR
2 1
charge -1
26 1
charge -1
41 1
charge -1
@<TRIPOS>BOND
     1     1     4    1
     2     1    24    1
     3     1     2    1
     4     1     3    2
     5    25    28    1
     6    25    24    1
     7    25    26    1
     8    25    27    2
     9     6    11    1
    10     6    12    1
    11    29    36    1
    12    29    37    1
    13     7     9    1
    14     7    13    1
    15     8    10    1
    16     8    14    1
    17     4     5    1
    18    28    36    1
    19    30    33    1
    20    30    38    1
    21    31    34    1
    22    31    39    1
    23    32    35    1
    24    32    40    1
    25    41    43   ar
    26    15    19    2
    27    42    43   ar
    28    16    22    2
    29    17    12    1
    30    17    19   ar
    31    17    20   ar
    32    18    19   ar
    33    18    22   ar
    34    18    23    1
    35     9    10    1
    36     9    11    1
    37    10    12    1
    38    11     5    1
    39    33    34    1
    40    33    35    1
    41    34    36    1
    42    35    37    1
    43    37    43    1
    44    20    21   ar
    45    21    22   ar
@<TRIPOS>MOLECULE
*****
 43 45 0 0 0
SMALL
GASTEIGER

@<TRIPOS>ATOM
      1 P          21.2281   71.8922   -2.8468 P.3     1  UNL1        0.2189
      2 O          21.8660   70.8034   -1.8336 O.co2   1  UNL1       -0.4371
      3 O          20.4297   72.9789   -2.1885 O.2     1  UNL1       -0.5170
      4 O          20.4316   70.9937   -3.9314 O.3     1  UNL1       -0.3112
      5 C          19.5749   69.9690   -3.4619 C.3     1  UNL1        0.1811
      6 O          17.9469   71.2651   -4.6649 O.3     1  UNL1       -0.3308
      7 O          15.8799   69.8736   -2.9967 O.3     1  UNL1       -0.3794
      8 O          15.7483   68.5196   -5.3600 O.3     1  UNL1       -0.3779
      9 C          17.1042   69.3658   -3.5276 C.3     1  UNL1        0.1713
     10 C          16.9730   69.1342   -5.0180 C.3     1  UNL1        0.1895
     11 C          18.1400   70.4802   -3.4683 C.3     1  UNL1        0.1764
     12 C          17.0929   70.5452   -5.5682 C.3     1  UNL1        0.2383
     13 H          15.2025   69.1793   -3.0241 H       1  UNL1        0.2105
     14 H          15.7208   67.6240   -4.9870 H       1  UNL1        0.2106
     15 O          15.6168   70.3408   -7.9673 O.2     1  UNL1       -0.2464
     16 O          19.4207   70.6673  -10.5496 O.2     1  UNL1       -0.2670
     17 N          17.6722   70.5739   -6.8814 N.ar    1  UNL1       -0.2551
     18 N          17.5128   70.5026   -9.2511 N.ar    1  UNL1       -0.2743
     19 C          16.8419   70.4635   -8.0217 C.ar    1  UNL1        0.3323
     20 C          19.0469   70.7118   -7.0301 C.ar    1  UNL1        0.0869
     21 C          19.6720   70.7475   -8.2085 C.ar    1  UNL1        0.0795
     22 C          18.8774   70.6375   -9.4495 C.ar    1  UNL1        0.2626
     23 H          16.9560   70.4254  -10.0594 H       1  UNL1        0.1734
     24 O          22.5136   72.4107   -3.6784 O.3     1  UNL1       -0.2703
     25 P          22.6203   73.1888   -5.0915 P.3     1  UNL1        0.2208
     26 O          21.1997   73.9574   -5.1987 O.co2   1  UNL1       -0.4371
     27 O          22.9329   72.3011   -6.2612 O.2     1  UNL1       -0.5170
     28 O          23.6987   74.3605   -4.8332 O.3     1  UNL1       -0.2858
     29 O          25.8400   74.5578   -3.8408 O.3     1  UNL1       -0.3226
     30 O          23.9039   77.8798   -2.3297 O.3     1  UNL1       -0.3794
     31 O          22.5239   75.3104   -2.4979 O.3     1  UNL1       -0.3775
     32 O          25.8602   78.1742   -4.4597 O.3     1  UNL1       -0.3792
     33 C          24.2007   76.8717   -3.2959 C.3     1  UNL1        0.1718
     34 C          23.9208   75.4923   -2.6988 C.3     1  UNL1        0.1968
     35 C          25.6784   76.9985   -3.6729 C.3     1  UNL1        0.1723
     36 C          24.4406   74.3838   -3.6151 C.3     1  UNL1        0.2706
     37 C          26.1529   75.7934   -4.4799 C.3     1  UNL1        0.1830
     38 H          22.9697   77.8186   -2.0748 H       1  UNL1        0.2105
     39 H          22.1873   76.0105   -1.9175 H       1  UNL1        0.2106
     40 H          25.5618   78.9486   -3.9576 H       1  UNL1        0.2106
     41 O          28.1875   76.6866   -3.7290 O.co2   1  UNL1       -0.5466
     42 O          28.2936   75.0086   -5.2691 O.co2   1  UNL1       -0.5466
     43 C          27.6445   75.7619   -4.5590 C.2     1  UNL1        0.0799
@<TRIPOS>UNITY_ATOM_ATTR
2 1
charge -1
26 1
charge -1
41 1
charge -1
@<TRIPOS>BOND
     1     1     4    1
     2     1    24    1
     3     1     2    1
     4     1     3    2
     5    25    28    1
     6    25    24    1
     7    25    26    1
     8    25    27    2
     9     6    11    1
    10     6    12    1
    11    29    36    1
    12    29    37    1
    13     7     9    1
    14     7    13    1
    15     8    10    1
    16     8    14    1
    17     4     5    1
    18    28    36    1
    19    30    33    1
    20    30    38    1
    21    31    34    1
    22    31    39    1
    23    32    35    1
    24    32    40    1
    25    41    43   ar
    26    15    19    2
    27    42    43   ar
    28    16    22    2
    29    17    12    1
    30    17    19   ar
    31    17    20   ar
    32    18    19   ar
    33    18    22   ar
    34    18    23    1
    35     9    10    1
    36     9    11    1
    37    10    12    1
    38    11     5    1
    39    33    34    1
    40    33    35    1
    41    34    36    1
    42    35    37    1
    43    37    43    1
    44    20    21   ar
    45    21    22   ar
@<TRIPOS>MOLECULE
*****
 43 45 0 0 0
SMALL
GASTEIGER

@<TRIPOS>ATOM
      1 P          23.3607   72.0345   -3.3725 P.3     1  UNL1        0.2189
      2 O          24.2680   72.9188   -4.3793 O.co2   1  UNL1       -0.4371
      3 O          24.1167   71.0245   -2.5600 O.2     1  UNL1       -0.5170
      4 O          22.1929   71.4406   -4.3220 O.3     1  UNL1       -0.3112
      5 C          21.5595   72.3123   -5.2404 C.3     1  UNL1        0.1811
      6 O          20.4808   70.3816   -6.1818 O.3     1  UNL1       -0.3308
      7 O          20.6452   71.8048   -8.8160 O.3     1  UNL1       -0.3794
      8 O          18.0532   72.2178   -8.0764 O.3     1  UNL1       -0.3779
      9 C          20.4152   72.3401   -7.5124 C.3     1  UNL1        0.1713
     10 C          19.0081   72.0194   -7.0549 C.3     1  UNL1        0.1895
     11 C          21.2600   71.5483   -6.5237 C.3     1  UNL1        0.1764
     12 C          19.1337   70.5614   -6.6470 C.3     1  UNL1        0.2383
     13 H          20.1159   72.2949   -9.4651 H       1  UNL1        0.2105
     14 H          18.0105   73.1612   -8.3002 H       1  UNL1        0.2106
     15 O          16.4492   69.7831   -7.0521 O.2     1  UNL1       -0.2464
     16 O          15.7383   69.2227   -2.5328 O.2     1  UNL1       -0.2670
     17 N          18.2248   70.2067   -5.5940 N.ar    1  UNL1       -0.2551
     18 N          16.0974   69.5057   -4.8008 N.ar    1  UNL1       -0.2743
     19 C          16.8967   69.8303   -5.9048 C.ar    1  UNL1        0.3323
     20 C          18.6514   70.2320   -4.2717 C.ar    1  UNL1        0.0869
     21 C          17.8779   69.9199   -3.2300 C.ar    1  UNL1        0.0795
     22 C          16.4764   69.5167   -3.4682 C.ar    1  UNL1        0.2626
     23 H          15.1682   69.2425   -4.9920 H       1  UNL1        0.1734
     24 O          22.5866   73.1554   -2.5023 O.3     1  UNL1       -0.2703
     25 P          23.1339   74.2224   -1.4181 P.3     1  UNL1        0.2208
     26 O          22.2911   75.5617   -1.7590 O.co2   1  UNL1       -0.4371
     27 O          24.6236   74.4082   -1.4348 O.2     1  UNL1       -0.5170
     28 O          22.5384   73.7146   -0.0074 O.3     1  UNL1       -0.2858
     29 O          23.3768   71.6239    0.7241 O.3     1  UNL1       -0.3226
     30 O          20.2899   72.2717    3.3922 O.3     1  UNL1       -0.3794
     31 O          19.9464   72.8770    0.5549 O.3     1  UNL1       -0.3775
     32 O          23.0473   72.6507    4.2311 O.3     1  UNL1       -0.3792
     33 C          21.3547   72.6421    2.5164 C.3     1  UNL1        0.1718
     34 C          21.0452   72.1560    1.1003 C.3     1  UNL1        0.1968
     35 C          22.6400   71.9919    3.0334 C.3     1  UNL1        0.1723
     36 C          22.2582   72.3292    0.1851 C.3     1  UNL1        0.2706
     37 C          23.7678   72.0973    2.0109 C.3     1  UNL1        0.1830
     38 H          19.4625   72.6735    3.0834 H       1  UNL1        0.2105
     39 H          19.1734   72.7717    1.1308 H       1  UNL1        0.2106
     40 H          22.3382   72.5910    4.8902 H       1  UNL1        0.2106
     41 O          26.0082   71.9068    2.6789 O.co2   1  UNL1       -0.5466
     42 O          24.8392   69.9698    2.3951 O.co2   1  UNL1       -0.5466
     43 C          24.8984   71.1900    2.3729 C.2     1  UNL1        0.0799
@<TRIPOS>UNITY_ATOM_ATTR
2 1
charge -1
26 1
charge -1
41 1
charge -1
@<TRIPOS>BOND
     1     1     4    1
     2     1    24    1
     3     1     2    1
     4     1     3    2
     5    25    28    1
     6    25    24    1
     7    25    26    1
     8    25    27    2
     9     6    11    1
    10     6    12    1
    11    29    36    1
    12    29    37    1
    13     7     9    1
    14     7    13    1
    15     8    10    1
    16     8    14    1
    17     4     5    1
    18    28    36    1
    19    30    33    1
    20    30    38    1
    21    31    34    1
    22    31    39    1
    23    32    35    1
    24    32    40    1
    25    41    43   ar
    26    15    19    2
    27    42    43   ar
    28    16    22    2
    29    17    12    1
    30    17    19   ar
    31    17    20   ar
    32    18    19   ar
    33    18    22   ar
    34    18    23    1
    35     9    10    1
    36     9    11    1
    37    10    12    1
    38    11     5    1
    39    33    34    1
    40    33    35    1
    41    34    36    1
    42    35    37    1
    43    37    43    1
    44    20    21   ar
    45    21    22   ar
@<TRIPOS>MOLECULE
*****
 43 45 0 0 0
SMALL
GASTEIGER

@<TRIPOS>ATOM
      1 P          21.0350   71.6335   -0.7811 P.3     1  UNL1        0.2189
      2 O          19.6992   72.5201   -1.0012 O.co2   1  UNL1       -0.4371
      3 O          20.8549   70.4204    0.0836 O.2     1  UNL1       -0.5170
      4 O          22.1327   72.7057   -0.2678 O.3     1  UNL1       -0.3112
      5 C          21.6979   74.0107    0.0674 C.3     1  UNL1        0.1811
      6 O          21.9537   72.9654    2.2167 O.3     1  UNL1       -0.3308
      7 O          20.7607   75.4645    3.3669 O.3     1  UNL1       -0.3794
      8 O          23.4265   75.8115    3.8244 O.3     1  UNL1       -0.3779
      9 C          21.6400   75.3130    2.2522 C.3     1  UNL1        0.1713
     10 C          23.0435   75.0057    2.7297 C.3     1  UNL1        0.1895
     11 C          21.2619   74.0288    1.5269 C.3     1  UNL1        0.1764
     12 C          22.9374   73.5349    3.0950 C.3     1  UNL1        0.2383
     13 H          20.9830   76.2785    3.8461 H       1  UNL1        0.2105
     14 H          23.4801   76.7381    3.5407 H       1  UNL1        0.2106
     15 O          23.1488   70.8297    2.3116 O.2     1  UNL1       -0.2464
     16 O          27.7538   70.9572    2.4584 O.2     1  UNL1       -0.2670
     17 N          24.1792   72.8361    2.9208 N.ar    1  UNL1       -0.2551
     18 N          25.4421   70.8955    2.3864 N.ar    1  UNL1       -0.2743
     19 C          24.1752   71.4776    2.5250 C.ar    1  UNL1        0.3323
     20 C          25.3827   73.4954    3.1397 C.ar    1  UNL1        0.0869
     21 C          26.5825   72.9272    3.0034 C.ar    1  UNL1        0.0795
     22 C          26.6665   71.5101    2.5935 C.ar    1  UNL1        0.2626
     23 H          25.4648   69.9498    2.1136 H       1  UNL1        0.1734
     24 O          21.5143   71.3180   -2.2923 O.3     1  UNL1       -0.2703
     25 P          21.3539   72.1706   -3.6565 P.3     1  UNL1        0.2208
     26 O          22.5940   71.6572   -4.5614 O.co2   1  UNL1       -0.4371
     27 O          21.3114   73.6573   -3.4521 O.2     1  UNL1       -0.5170
     28 O          20.0456   71.5555   -4.3722 O.3     1  UNL1       -0.2858
     29 O          19.1609   72.0117   -6.5212 O.3     1  UNL1       -0.3226
     30 O          15.7428   71.1296   -4.3750 O.3     1  UNL1       -0.3794
     31 O          17.8434   72.7850   -3.1997 O.3     1  UNL1       -0.3775
     32 O          16.8419   69.1830   -6.2333 O.3     1  UNL1       -0.3792
     33 C          17.1248   71.0368   -4.7206 C.3     1  UNL1        0.1718
     34 C          17.7831   72.4085   -4.5705 C.3     1  UNL1        0.1968
     35 C          17.2184   70.5573   -6.1709 C.3     1  UNL1        0.1723
     36 C          19.1991   72.4019   -5.1480 C.3     1  UNL1        0.2706
     37 C          18.6372   70.6996   -6.7142 C.3     1  UNL1        0.1830
     38 H          15.6585   71.4327   -3.4572 H       1  UNL1        0.2105
     39 H          16.9483   72.7911   -2.8268 H       1  UNL1        0.2106
     40 H          15.9407   69.0786   -5.8902 H       1  UNL1        0.2106
     41 O          17.4267   70.1974   -8.6595 O.co2   1  UNL1       -0.5466
     42 O          19.6331   70.7145   -8.9118 O.co2   1  UNL1       -0.5466
     43 C          18.6539   70.5469   -8.2004 C.2     1  UNL1        0.0799
@<TRIPOS>UNITY_ATOM_ATTR
2 1
charge -1
26 1
charge -1
41 1
charge -1
@<TRIPOS>BOND
     1     1     4    1
     2     1    24    1
     3     1     2    1
     4     1     3    2
     5    25    28    1
     6    25    24    1
     7    25    26    1
     8    25    27    2
     9     6    11    1
    10     6    12    1
    11    29    36    1
    12    29    37    1
    13     7     9    1
    14     7    13    1
    15     8    10    1
    16     8    14    1
    17     4     5    1
    18    28    36    1
    19    30    33    1
    20    30    38    1
    21    31    34    1
    22    31    39    1
    23    32    35    1
    24    32    40    1
    25    41    43   ar
    26    15    19    2
    27    42    43   ar
    28    16    22    2
    29    17    12    1
    30    17    19   ar
    31    17    20   ar
    32    18    19   ar
    33    18    22   ar
    34    18    23    1
    35     9    10    1
    36     9    11    1
    37    10    12    1
    38    11     5    1
    39    33    34    1
    40    33    35    1
    41    34    36    1
    42    35    37    1
    43    37    43    1
    44    20    21   ar
    45    21    22   ar
@<TRIPOS>MOLECULE
*****
 43 45 0 0 0
SMALL
GASTEIGER

@<TRIPOS>ATOM
      1 P          20.4448   73.1655   -2.9078 P.3     1  UNL1        0.2189
      2 O          20.3532   72.3978   -1.4861 O.co2   1  UNL1       -0.4371
      3 O          20.3602   74.6615   -2.8267 O.2     1  UNL1       -0.5170
      4 O          19.3123   72.4456   -3.8118 O.3     1  UNL1       -0.3112
      5 C          18.8584   71.1601   -3.4296 C.3     1  UNL1        0.1811
      6 O          17.0712   71.5534   -4.9881 O.3     1  UNL1       -0.3308
      7 O          15.4232   69.7271   -3.2733 O.3     1  UNL1       -0.3794
      8 O          16.1452   68.1083   -5.3456 O.3     1  UNL1       -0.3779
      9 C          16.8129   69.6563   -3.5934 C.3     1  UNL1        0.1713
     10 C          16.9987   69.1854   -5.0203 C.3     1  UNL1        0.1895
     11 C          17.3540   71.0782   -3.6541 C.3     1  UNL1        0.1764
     12 C          16.6808   70.4429   -5.8113 C.3     1  UNL1        0.2383
     13 H          15.0552   68.8303   -3.2290 H       1  UNL1        0.2105
     14 H          16.3881   67.3320   -4.8161 H       1  UNL1        0.2106
     15 O          15.4639   70.6761   -8.3493 O.2     1  UNL1       -0.2464
     16 O          19.5380   70.6765  -10.5049 O.2     1  UNL1       -0.2670
     17 N          17.3997   70.5061   -7.0523 N.ar    1  UNL1       -0.2551
     18 N          17.4942   70.6751   -9.4205 N.ar    1  UNL1       -0.2743
     19 C          16.6928   70.6227   -8.2724 C.ar    1  UNL1        0.3323
     20 C          18.7884   70.4543   -7.0527 C.ar    1  UNL1        0.0869
     21 C          19.5385   70.5054   -8.1552 C.ar    1  UNL1        0.0795
     22 C          18.8779   70.6264   -9.4714 C.ar    1  UNL1        0.2626
     23 H          17.0245   70.7542  -10.2822 H       1  UNL1        0.1734
     24 O          21.8235   72.6022   -3.5362 O.3     1  UNL1       -0.2703
     25 P          23.3112   72.5007   -2.9116 P.3     1  UNL1        0.2208
     26 O          24.2528   72.3567   -4.2205 O.co2   1  UNL1       -0.4371
     27 O          23.4820   71.4019   -1.9030 O.2     1  UNL1       -0.5170
     28 O          23.6204   73.9805   -2.3484 O.3     1  UNL1       -0.2858
     29 O          24.6647   74.9743   -4.2275 O.3     1  UNL1       -0.3226
     30 O          24.0617   78.2432   -1.7741 O.3     1  UNL1       -0.3794
     31 O          24.9992   75.7097   -0.6619 O.3     1  UNL1       -0.3775
     32 O          22.3504   77.8180   -4.0853 O.3     1  UNL1       -0.3792
     33 C          23.7693   76.9636   -2.3355 C.3     1  UNL1        0.1718
     34 C          24.9254   76.0041   -2.0520 C.3     1  UNL1        0.1968
     35 C          23.5823   77.1406   -3.8440 C.3     1  UNL1        0.1723
     36 C          24.7556   74.6981   -2.8293 C.3     1  UNL1        0.2706
     37 C          23.5479   75.7950   -4.5628 C.3     1  UNL1        0.1830
     38 H          24.1847   78.1555   -0.8157 H       1  UNL1        0.2105
     39 H          25.1068   76.5340   -0.1625 H       1  UNL1        0.2106
     40 H          22.3593   78.6760   -3.6331 H       1  UNL1        0.2106
     41 O          23.9712   77.2722   -6.3349 O.co2   1  UNL1       -0.5466
     42 O          23.5901   75.0886   -6.8694 O.co2   1  UNL1       -0.5466
     43 C          23.6968   75.9777   -6.0382 C.2     1  UNL1        0.0799
@<TRIPOS>UNITY_ATOM_ATTR
2 1
charge -1
26 1
charge -1
41 1
charge -1
@<TRIPOS>BOND
     1     1     4    1
     2     1    24    1
     3     1     2    1
     4     1     3    2
     5    25    28    1
     6    25    24    1
     7    25    26    1
     8    25    27    2
     9     6    11    1
    10     6    12    1
    11    29    36    1
    12    29    37    1
    13     7     9    1
    14     7    13    1
    15     8    10    1
    16     8    14    1
    17     4     5    1
    18    28    36    1
    19    30    33    1
    20    30    38    1
    21    31    34    1
    22    31    39    1
    23    32    35    1
    24    32    40    1
    25    41    43   ar
    26    15    19    2
    27    42    43   ar
    28    16    22    2
    29    17    12    1
    30    17    19   ar
    31    17    20   ar
    32    18    19   ar
    33    18    22   ar
    34    18    23    1
    35     9    10    1
    36     9    11    1
    37    10    12    1
    38    11     5    1
    39    33    34    1
    40    33    35    1
    41    34    36    1
    42    35    37    1
    43    37    43    1
    44    20    21   ar
    45    21    22   ar
@<TRIPOS>MOLECULE
*****
 43 45 0 0 0
SMALL
GASTEIGER

@<TRIPOS>ATOM
      1 P          22.5693   73.1779   -4.0130 P.3     1  UNL1        0.2189
      2 O          23.8122   72.2432   -4.4606 O.co2   1  UNL1       -0.4371
      3 O          22.8766   74.6444   -3.9312 O.2     1  UNL1       -0.5170
      4 O          22.0411   72.4933   -2.6454 O.3     1  UNL1       -0.3112
      5 C          21.2425   71.3279   -2.7373 C.3     1  UNL1        0.1811
      6 O          20.6496   70.7280   -0.4865 O.3     1  UNL1       -0.3308
      7 O          18.4840   72.7904   -0.7051 O.3     1  UNL1       -0.3794
      8 O          20.4049   74.0928    0.7267 O.3     1  UNL1       -0.3779
      9 C          19.8048   72.8060   -1.2472 C.3     1  UNL1        0.1713
     10 C          20.8175   73.0676   -0.1526 C.3     1  UNL1        0.1895
     11 C          20.1548   71.3866   -1.6725 C.3     1  UNL1        0.1764
     12 C          20.9029   71.7123    0.5285 C.3     1  UNL1        0.2383
     13 H          18.2380   73.6867   -0.4262 H       1  UNL1        0.2105
     14 H          20.3664   74.9351    0.2459 H       1  UNL1        0.2106
     15 O          21.5891   72.2795    3.2088 O.2     1  UNL1       -0.2464
     16 O          25.8924   70.7350    2.6255 O.2     1  UNL1       -0.2670
     17 N          22.1955   71.4684    1.1034 N.ar    1  UNL1       -0.2551
     18 N          23.7320   71.5107    2.9155 N.ar    1  UNL1       -0.2743
     19 C          22.4367   71.7896    2.4601 C.ar    1  UNL1        0.3323
     20 C          23.2068   70.9158    0.3269 C.ar    1  UNL1        0.0869
     21 C          24.4366   70.6556    0.7750 C.ar    1  UNL1        0.0795
     22 C          24.7712   70.9624    2.1812 C.ar    1  UNL1        0.2626
     23 H          23.9244   71.7276    3.8563 H       1  UNL1        0.1734
     24 O          21.4200   72.7894   -5.0813 O.3     1  UNL1       -0.2703
     25 P          20.1655   73.6382   -5.6464 P.3     1  UNL1        0.2208
     26 O          20.7268   74.2458   -7.0378 O.co2   1  UNL1       -0.4371
     27 O          19.6379   74.6682   -4.6900 O.2     1  UNL1       -0.5170
     28 O          19.0867   72.5254   -6.0939 O.3     1  UNL1       -0.2858
     29 O          18.7863   70.2436   -5.5350 O.3     1  UNL1       -0.3226
     30 O          17.7706   70.2690   -9.5395 O.3     1  UNL1       -0.3794
     31 O          20.0763   71.7892   -8.5869 O.3     1  UNL1       -0.3775
     32 O          15.6967   70.1044   -7.5091 O.3     1  UNL1       -0.3792
     33 C          17.8890   70.8050   -8.2217 C.3     1  UNL1        0.1718
     34 C          19.3615   70.8340   -7.8114 C.3     1  UNL1        0.1968
     35 C          17.0897   69.9088   -7.2731 C.3     1  UNL1        0.1723
     36 C          19.5099   71.1838   -6.3300 C.3     1  UNL1        0.2706
     37 C          17.3878   70.2371   -5.8130 C.3     1  UNL1        0.1830
     38 H          18.2708   70.8223  -10.1599 H       1  UNL1        0.2105
     39 H          19.9862   71.5735   -9.5280 H       1  UNL1        0.2106
     40 H          15.4936   69.8989   -8.4350 H       1  UNL1        0.2106
     41 O          16.3476   68.1424   -5.6346 O.co2   1  UNL1       -0.5466
     42 O          16.9141   69.1913   -3.6909 O.co2   1  UNL1       -0.5466
     43 C          16.8716   69.1631   -4.9117 C.2     1  UNL1        0.0799
@<TRIPOS>UNITY_ATOM_ATTR
2 1
charge -1
26 1
charge -1
41 1
charge -1
@<TRIPOS>BOND
     1     1     4    1
     2     1    24    1
     3     1     2    1
     4     1     3    2
     5    25    28    1
     6    25    24    1
     7    25    26    1
     8    25    27    2
     9     6    11    1
    10     6    12    1
    11    29    36    1
    12    29    37    1
    13     7     9    1
    14     7    13    1
    15     8    10    1
    16     8    14    1
    17     4     5    1
    18    28    36    1
    19    30    33    1
    20    30    38    1
    21    31    34    1
    22    31    39    1
    23    32    35    1
    24    32    40    1
    25    41    43   ar
    26    15    19    2
    27    42    43   ar
    28    16    22    2
    29    17    12    1
    30    17    19   ar
    31    17    20   ar
    32    18    19   ar
    33    18    22   ar
    34    18    23    1
    35     9    10    1
    36     9    11    1
    37    10    12    1
    38    11     5    1
    39    33    34    1
    40    33    35    1
    41    34    36    1
    42    35    37    1
    43    37    43    1
    44    20    21   ar
    45    21    22   ar
@<TRIPOS>MOLECULE
*****
 43 45 0 0 0
SMALL
GASTEIGER

@<TRIPOS>ATOM
      1 P          21.8422   72.4469   -5.6867 P.3     1  UNL1        0.2189
      2 O          21.1458   73.8515   -5.2854 O.co2   1  UNL1       -0.4371
      3 O          23.0695   72.5697   -6.5414 O.2     1  UNL1       -0.5170
      4 O          20.6310   71.5788   -6.3171 O.3     1  UNL1       -0.3112
      5 C          20.1344   71.9382   -7.5933 C.3     1  UNL1        0.1811
      6 O          18.8983   69.9215   -7.1658 O.3     1  UNL1       -0.3308
      7 O          18.1130   70.0107  -10.0584 O.3     1  UNL1       -0.3794
      8 O          15.8955   70.9889   -8.8085 O.3     1  UNL1       -0.3779
      9 C          18.3023   71.0873   -9.1398 C.3     1  UNL1        0.1713
     10 C          17.1431   71.1575   -8.1685 C.3     1  UNL1        0.1895
     11 C          19.4637   70.7248   -8.2243 C.3     1  UNL1        0.1764
     12 C          17.4662   70.0245   -7.2094 C.3     1  UNL1        0.2383
     13 H          17.3758   70.2193  -10.6540 H       1  UNL1        0.2105
     14 H          15.7361   71.7354   -9.4078 H       1  UNL1        0.2106
     15 O          16.2908   68.0632   -5.5516 O.2     1  UNL1       -0.2464
     16 O          15.6184   71.0883   -2.1397 O.2     1  UNL1       -0.2670
     17 N          16.9754   70.2723   -5.8833 N.ar    1  UNL1       -0.2551
     18 N          15.9561   69.5720   -3.8543 N.ar    1  UNL1       -0.2743
     19 C          16.4023   69.2175   -5.1342 C.ar    1  UNL1        0.3323
     20 C          17.0654   71.5469   -5.3373 C.ar    1  UNL1        0.0869
     21 C          16.6358   71.8695   -4.1158 C.ar    1  UNL1        0.0795
     22 C          16.0234   70.8256   -3.2681 C.ar    1  UNL1        0.2626
     23 H          15.5515   68.8548   -3.3146 H       1  UNL1        0.1734
     24 O          22.0876   71.7411   -4.2534 O.3     1  UNL1       -0.2703
     25 P          23.2553   71.9477   -3.1545 P.3     1  UNL1        0.2208
     26 O          23.9202   73.3602   -3.5826 O.co2   1  UNL1       -0.4371
     27 O          24.2280   70.8074   -3.0676 O.2     1  UNL1       -0.5170
     28 O          22.4724   72.2661   -1.7804 O.3     1  UNL1       -0.2858
     29 O          23.0769   70.6976   -0.1121 O.3     1  UNL1       -0.3226
     30 O          20.2016   72.9330    1.8381 O.3     1  UNL1       -0.3794
     31 O          19.8219   72.1377   -0.9472 O.3     1  UNL1       -0.3775
     32 O          23.0159   73.3162    2.4573 O.3     1  UNL1       -0.3792
     33 C          21.2679   72.6986    0.9184 C.3     1  UNL1        0.1718
     34 C          20.8449   71.6352   -0.0954 C.3     1  UNL1        0.1968
     35 C          22.4835   72.2203    1.7156 C.3     1  UNL1        0.1723
     36 C          22.0324   71.1921   -0.9511 C.3     1  UNL1        0.2706
     37 C          23.5740   71.6775    0.7966 C.3     1  UNL1        0.1830
     38 H          19.4180   73.2379    1.3540 H       1  UNL1        0.2105
     39 H          19.0653   72.4210   -0.4108 H       1  UNL1        0.2106
     40 H          22.3317   73.6710    3.0461 H       1  UNL1        0.2106
     41 O          24.1560   70.6766    2.8364 O.co2   1  UNL1       -0.5466
     42 O          25.6862   70.5661    1.1496 O.co2   1  UNL1       -0.5466
     43 C          24.5985   70.9212    1.5781 C.2     1  UNL1        0.0799
@<TRIPOS>UNITY_ATOM_ATTR
2 1
charge -1
26 1
charge -1
41 1
charge -1
@<TRIPOS>BOND
     1     1     4    1
     2     1    24    1
     3     1     2    1
     4     1     3    2
     5    25    28    1
     6    25    24    1
     7    25    26    1
     8    25    27    2
     9     6    11    1
    10     6    12    1
    11    29    36    1
    12    29    37    1
    13     7     9    1
    14     7    13    1
    15     8    10    1
    16     8    14    1
    17     4     5    1
    18    28    36    1
    19    30    33    1
    20    30    38    1
    21    31    34    1
    22    31    39    1
    23    32    35    1
    24    32    40    1
    25    41    43   ar
    26    15    19    2
    27    42    43   ar
    28    16    22    2
    29    17    12    1
    30    17    19   ar
    31    17    20   ar
    32    18    19   ar
    33    18    22   ar
    34    18    23    1
    35     9    10    1
    36     9    11    1
    37    10    12    1
    38    11     5    1
    39    33    34    1
    40    33    35    1
    41    34    36    1
    42    35    37    1
    43    37    43    1
    44    20    21   ar
    45    21    22   ar
@<TRIPOS>MOLECULE
*****
 43 45 0 0 0
SMALL
GASTEIGER

@<TRIPOS>ATOM
      1 P          20.7793   73.1804   -3.4996 P.3     1  UNL1        0.2189
      2 O          20.8026   74.0683   -2.1468 O.co2   1  UNL1       -0.4371
      3 O          21.1559   73.9203   -4.7496 O.2     1  UNL1       -0.5170
      4 O          19.3078   72.5078   -3.4976 O.3     1  UNL1       -0.3112
      5 C          18.2516   73.1902   -4.1482 C.3     1  UNL1        0.1811
      6 O          16.5721   72.0734   -5.4557 O.3     1  UNL1       -0.3308
      7 O          15.9815   70.4731   -2.9896 O.3     1  UNL1       -0.3794
      8 O          17.4985   68.7542   -4.4662 O.3     1  UNL1       -0.3779
      9 C          17.2341   70.9581   -3.4736 C.3     1  UNL1        0.1713
     10 C          17.6887   70.1397   -4.6635 C.3     1  UNL1        0.1895
     11 C          16.9981   72.3260   -4.0993 C.3     1  UNL1        0.1764
     12 C          16.8205   70.6961   -5.7791 C.3     1  UNL1        0.2383
     13 H          16.1069   69.5999   -2.5853 H       1  UNL1        0.2105
     14 H          18.0731   68.4483   -3.7463 H       1  UNL1        0.2106
     15 O          15.4511   70.5373   -8.2441 O.2     1  UNL1       -0.2464
     16 O          19.3906   70.4317  -10.6342 O.2     1  UNL1       -0.2670
     17 N          17.4636   70.6260   -7.0607 N.ar    1  UNL1       -0.2551
     18 N          17.4145   70.4839   -9.4321 N.ar    1  UNL1       -0.2743
     19 C          16.6835   70.5488   -8.2386 C.ar    1  UNL1        0.3323
     20 C          18.8508   70.6358   -7.1420 C.ar    1  UNL1        0.0869
     21 C          19.5334   70.5734   -8.2870 C.ar    1  UNL1        0.0795
     22 C          18.7938   70.4899   -9.5634 C.ar    1  UNL1        0.2626
     23 H          16.8932   70.4275  -10.2654 H       1  UNL1        0.1734
     24 O          21.7472   71.9382   -3.1350 O.3     1  UNL1       -0.2703
     25 P          23.2237   71.9003   -2.4775 P.3     1  UNL1        0.2208
     26 O          23.7883   73.3927   -2.7502 O.co2   1  UNL1       -0.4371
     27 O          24.1027   70.8014   -3.0006 O.2     1  UNL1       -0.5170
     28 O          22.9620   71.8484   -0.8865 O.3     1  UNL1       -0.2858
     29 O          22.8454   73.8320    0.4022 O.3     1  UNL1       -0.3226
     30 O          23.5886   70.9867    3.3039 O.3     1  UNL1       -0.3794
     31 O          25.0023   70.9004    0.7489 O.3     1  UNL1       -0.3775
     32 O          20.9206   72.1012    3.0025 O.3     1  UNL1       -0.3792
     33 C          23.0594   71.4895    2.0771 C.3     1  UNL1        0.1718
     34 C          24.2024   71.9899    1.1936 C.3     1  UNL1        0.1968
     35 C          22.1023   72.6364    2.4096 C.3     1  UNL1        0.1723
     36 C          23.6637   72.7420   -0.0241 C.3     1  UNL1        0.2706
     37 C          21.7100   73.4154    1.1575 C.3     1  UNL1        0.1830
     38 H          24.1998   70.2567    3.1176 H       1  UNL1        0.2105
     39 H          25.3472   70.4186    1.5165 H       1  UNL1        0.2106
     40 H          21.1564   71.6028    3.8005 H       1  UNL1        0.2106
     41 O          21.5936   75.2143    2.6581 O.co2   1  UNL1       -0.5466
     42 O          20.1607   75.2447    0.8847 O.co2   1  UNL1       -0.5466
     43 C          21.0557   74.7086    1.5206 C.2     1  UNL1        0.0799
@<TRIPOS>UNITY_ATOM_ATTR
2 1
charge -1
26 1
charge -1
41 1
charge -1
@<TRIPOS>BOND
     1     1     4    1
     2     1    24    1
     3     1     2    1
     4     1     3    2
     5    25    28    1
     6    25    24    1
     7    25    26    1
     8    25    27    2
     9     6    11    1
    10     6    12    1
    11    29    36    1
    12    29    37    1
    13     7     9    1
    14     7    13    1
    15     8    10    1
    16     8    14    1
    17     4     5    1
    18    28    36    1
    19    30    33    1
    20    30    38    1
    21    31    34    1
    22    31    39    1
    23    32    35    1
    24    32    40    1
    25    41    43   ar
    26    15    19    2
    27    42    43   ar
    28    16    22    2
    29    17    12    1
    30    17    19   ar
    31    17    20   ar
    32    18    19   ar
    33    18    22   ar
    34    18    23    1
    35     9    10    1
    36     9    11    1
    37    10    12    1
    38    11     5    1
    39    33    34    1
    40    33    35    1
    41    34    36    1
    42    35    37    1
    43    37    43    1
    44    20    21   ar
    45    21    22   ar
@<TRIPOS>MOLECULE
*****
 43 45 0 0 0
SMALL
GASTEIGER

@<TRIPOS>ATOM
      1 P          23.3750   72.3597   -3.5368 P.3     1  UNL1        0.2189
      2 O          24.0667   70.9174   -3.2916 O.co2   1  UNL1       -0.4371
      3 O          24.3047   73.4345   -4.0188 O.2     1  UNL1       -0.5170
      4 O          22.6095   72.6652   -2.1445 O.3     1  UNL1       -0.3112
      5 C          23.3793   72.7883   -0.9626 C.3     1  UNL1        0.1811
      6 O          24.4505   71.3260    0.6160 O.3     1  UNL1       -0.3308
      7 O          21.7135   70.2423    1.1871 O.3     1  UNL1       -0.3794
      8 O          22.1367   71.9290    3.2876 O.3     1  UNL1       -0.3779
      9 C          22.1103   71.5793    0.8815 C.3     1  UNL1        0.1713
     10 C          22.8025   72.2060    2.0733 C.3     1  UNL1        0.1895
     11 C          23.2356   71.5130   -0.1420 C.3     1  UNL1        0.1764
     12 C          24.1821   71.5734    2.0053 C.3     1  UNL1        0.2383
     13 H          20.9952   70.2589    1.8394 H       1  UNL1        0.2105
     14 H          21.2639   72.3535    3.2818 H       1  UNL1        0.2106
     15 O          26.8330   70.7556    2.5351 O.2     1  UNL1       -0.2464
     16 O          28.0222   74.9506    4.0291 O.2     1  UNL1       -0.2670
     17 N          25.2050   72.4314    2.5329 N.ar    1  UNL1       -0.2551
     18 N          27.4225   72.8455    3.2796 N.ar    1  UNL1       -0.2743
     19 C          26.5047   71.9215    2.7628 C.ar    1  UNL1        0.3323
     20 C          24.9173   73.7612    2.8152 C.ar    1  UNL1        0.0869
     21 C          25.8026   74.6300    3.3074 C.ar    1  UNL1        0.0795
     22 C          27.1831   74.1774    3.5770 C.ar    1  UNL1        0.2626
     23 H          28.3334   72.5132    3.4499 H       1  UNL1        0.1734
     24 O          22.1634   72.0136   -4.5493 O.3     1  UNL1       -0.2703
     25 P          21.4557   72.9012   -5.7003 P.3     1  UNL1        0.2208
     26 O          22.3458   72.5811   -7.0139 O.co2   1  UNL1       -0.4371
     27 O          21.3435   74.3615   -5.3702 O.2     1  UNL1       -0.5170
     28 O          20.0459   72.1666   -5.9749 O.3     1  UNL1       -0.2858
     29 O          19.3279   69.9873   -5.3885 O.3     1  UNL1       -0.3226
     30 O          17.3019   70.6144   -8.9339 O.3     1  UNL1       -0.3794
     31 O          20.0922   71.4345   -8.6577 O.3     1  UNL1       -0.3775
     32 O          15.8912   70.7827   -6.3977 O.3     1  UNL1       -0.3792
     33 C          17.9099   70.9865   -7.6970 C.3     1  UNL1        0.1718
     34 C          19.3935   70.6182   -7.7249 C.3     1  UNL1        0.1968
     35 C          17.1954   70.2325   -6.5732 C.3     1  UNL1        0.1723
     36 C          20.0255   70.7886   -6.3427 C.3     1  UNL1        0.2706
     37 C          17.9547   70.3475   -5.2547 C.3     1  UNL1        0.1830
     38 H          17.7398   71.0813   -9.6630 H       1  UNL1        0.2105
     39 H          19.6963   71.3315   -9.5369 H       1  UNL1        0.2106
     40 H          15.3973   70.7159   -7.2299 H       1  UNL1        0.2106
     41 O          18.4693   68.7916   -3.5766 O.co2   1  UNL1       -0.5466
     42 O          16.2652   69.0888   -4.0789 O.co2   1  UNL1       -0.5466
     43 C          17.4434   69.3568   -4.2599 C.2     1  UNL1        0.0799
@<TRIPOS>UNITY_ATOM_ATTR
2 1
charge -1
26 1
charge -1
41 1
charge -1
@<TRIPOS>BOND
     1     1     4    1
     2     1    24    1
     3     1     2    1
     4     1     3    2
     5    25    28    1
     6    25    24    1
     7    25    26    1
     8    25    27    2
     9     6    11    1
    10     6    12    1
    11    29    36    1
    12    29    37    1
    13     7     9    1
    14     7    13    1
    15     8    10    1
    16     8    14    1
    17     4     5    1
    18    28    36    1
    19    30    33    1
    20    30    38    1
    21    31    34    1
    22    31    39    1
    23    32    35    1
    24    32    40    1
    25    41    43   ar
    26    15    19    2
    27    42    43   ar
    28    16    22    2
    29    17    12    1
    30    17    19   ar
    31    17    20   ar
    32    18    19   ar
    33    18    22   ar
    34    18    23    1
    35     9    10    1
    36     9    11    1
    37    10    12    1
    38    11     5    1
    39    33    34    1
    40    33    35    1
    41    34    36    1
    42    35    37    1
    43    37    43    1
    44    20    21   ar
    45    21    22   ar
@<TRIPOS>MOLECULE
*****
 43 45 0 0 0
SMALL
GASTEIGER

@<TRIPOS>ATOM
      1 P          22.4289   71.5768   -3.0775 P.3     1  UNL1        0.2189
      2 O          21.6326   70.2090   -3.4151 O.co2   1  UNL1       -0.4371
      3 O          23.8892   71.5613   -3.4225 O.2     1  UNL1       -0.5170
      4 O          22.0771   71.8576   -1.5234 O.3     1  UNL1       -0.3112
      5 C          22.5947   70.9769   -0.5431 C.3     1  UNL1        0.1811
      6 O          22.7947   70.9182    1.8515 O.3     1  UNL1       -0.3308
      7 O          20.4015   72.7239    1.9097 O.3     1  UNL1       -0.3794
      8 O          22.4657   74.4570    2.3237 O.3     1  UNL1       -0.3779
      9 C          21.4828   72.6864    0.9780 C.3     1  UNL1        0.1713
     10 C          22.7318   73.2734    1.6007 C.3     1  UNL1        0.1895
     11 C          21.8804   71.2303    0.7783 C.3     1  UNL1        0.1764
     12 C          23.2036   72.1372    2.4920 C.3     1  UNL1        0.2383
     13 H          20.1299   73.6444    2.0534 H       1  UNL1        0.2105
     14 H          22.1690   75.1497    1.7121 H       1  UNL1        0.2106
     15 O          24.8397   69.8811    2.0339 O.2     1  UNL1       -0.2464
     16 O          28.6641   72.2013    3.1452 O.2     1  UNL1       -0.2670
     17 N          24.6300   72.1239    2.6540 N.ar    1  UNL1       -0.2551
     18 N          26.7428   71.0386    2.5888 N.ar    1  UNL1       -0.2743
     19 C          25.3584   70.9381    2.3981 C.ar    1  UNL1        0.3323
     20 C          25.2927   73.2758    3.0600 C.ar    1  UNL1        0.0869
     21 C          26.6128   73.3562    3.2373 C.ar    1  UNL1        0.0795
     22 C          27.4470   72.1615    2.9921 C.ar    1  UNL1        0.2626
     23 H          27.2709   70.2252    2.4188 H       1  UNL1        0.1734
     24 O          21.5653   72.7008   -3.8544 O.3     1  UNL1       -0.2703
     25 P          21.2830   72.9204   -5.4310 P.3     1  UNL1        0.2208
     26 O          22.4044   71.9932   -6.1403 O.co2   1  UNL1       -0.4371
     27 O          21.3033   74.3572   -5.8659 O.2     1  UNL1       -0.5170
     28 O          19.8891   72.1569   -5.7075 O.3     1  UNL1       -0.2858
     29 O          19.0855   69.9348   -5.5466 O.3     1  UNL1       -0.3226
     30 O          17.4996   71.1422   -9.1653 O.3     1  UNL1       -0.3794
     31 O          20.2455   71.8344   -8.4471 O.3     1  UNL1       -0.3775
     32 O          15.8003   70.9670   -6.8132 O.3     1  UNL1       -0.3792
     33 C          17.9605   71.3076   -7.8243 C.3     1  UNL1        0.1718
     34 C          19.4334   70.9070   -7.7363 C.3     1  UNL1        0.1968
     35 C          17.1107   70.4137   -6.9185 C.3     1  UNL1        0.1723
     36 C          19.8990   70.8507   -6.2807 C.3     1  UNL1        0.2706
     37 C          17.7098   70.3086   -5.5190 C.3     1  UNL1        0.1830
     38 H          18.0253   71.7010   -9.7593 H       1  UNL1        0.2105
     39 H          19.9554   71.8754   -9.3715 H       1  UNL1        0.2106
     40 H          15.4079   71.0394   -7.6972 H       1  UNL1        0.2106
     41 O          16.2434   68.4782   -5.5492 O.co2   1  UNL1       -0.5466
     42 O          17.2734   68.9533   -3.5712 O.co2   1  UNL1       -0.5466
     43 C          17.0747   69.1944   -4.7524 C.2     1  UNL1        0.0799
@<TRIPOS>UNITY_ATOM_ATTR
2 1
charge -1
26 1
charge -1
41 1
charge -1
@<TRIPOS>BOND
     1     1     4    1
     2     1    24    1
     3     1     2    1
     4     1     3    2
     5    25    28    1
     6    25    24    1
     7    25    26    1
     8    25    27    2
     9     6    11    1
    10     6    12    1
    11    29    36    1
    12    29    37    1
    13     7     9    1
    14     7    13    1
    15     8    10    1
    16     8    14    1
    17     4     5    1
    18    28    36    1
    19    30    33    1
    20    30    38    1
    21    31    34    1
    22    31    39    1
    23    32    35    1
    24    32    40    1
    25    41    43   ar
    26    15    19    2
    27    42    43   ar
    28    16    22    2
    29    17    12    1
    30    17    19   ar
    31    17    20   ar
    32    18    19   ar
    33    18    22   ar
    34    18    23    1
    35     9    10    1
    36     9    11    1
    37    10    12    1
    38    11     5    1
    39    33    34    1
    40    33    35    1
    41    34    36    1
    42    35    37    1
    43    37    43    1
    44    20    21   ar
    45    21    22   ar
