@<TRIPOS>MOLECULE
*****
 43 45 0 0 0
SMALL
GASTEIGER

@<TRIPOS>ATOM
      1 P          22.7983   72.0569   -2.5634 P.3     1  UNL1        0.2189
      2 O          23.2592   73.3665   -1.7319 O.co2   1  UNL1       -0.4371
      3 O          23.4840   71.8719   -3.8853 O.2     1  UNL1       -0.5170
      4 O          21.1859   72.1799   -2.6195 O.3     1  UNL1       -0.3112
      5 C          20.4791   71.3840   -3.5530 C.3     1  UNL1        0.1811
      6 O          18.5427   72.1757   -4.7366 O.3     1  UNL1       -0.3308
      7 O          16.9226   70.9360   -2.5389 O.3     1  UNL1       -0.3794
      8 O          16.7201   69.0945   -4.5399 O.3     1  UNL1       -0.3779
      9 C          18.1384   70.4802   -3.1327 C.3     1  UNL1        0.1713
     10 C          17.8689   69.9154   -4.5113 C.3     1  UNL1        0.1895
     11 C          18.9926   71.7001   -3.4495 C.3     1  UNL1        0.1764
     12 C          17.7074   71.1766   -5.3427 C.3     1  UNL1        0.2383
     13 H          16.3601   70.1741   -2.3276 H       1  UNL1        0.2105
     14 H          16.8731   68.3052   -3.9962 H       1  UNL1        0.2106
     15 O          15.9902   70.3397   -7.4230 O.2     1  UNL1       -0.2464
     16 O          19.3859   70.4952  -10.5356 O.2     1  UNL1       -0.2670
     17 N          18.1165   70.9903   -6.7061 N.ar    1  UNL1       -0.2551
     18 N          17.6833   70.4169   -8.9710 N.ar    1  UNL1       -0.2743
     19 C          17.1751   70.5671   -7.6740 C.ar    1  UNL1        0.3323
     20 C          19.4356   71.2275   -7.0729 C.ar    1  UNL1        0.0869
     21 C          19.9052   71.0801   -8.3133 C.ar    1  UNL1        0.0795
     22 C          18.9868   70.6401   -9.3841 C.ar    1  UNL1        0.2626
     23 H          17.0472   70.1212   -9.6618 H       1  UNL1        0.1734
     24 O          23.0345   70.8554   -1.5083 O.3     1  UNL1       -0.2703
     25 P          22.3006   70.5115   -0.1094 P.3     1  UNL1        0.2208
     26 O          23.3178   69.4679    0.5952 O.co2   1  UNL1       -0.4371
     27 O          20.8968   70.0009   -0.2598 O.2     1  UNL1       -0.5170
     28 O          22.4320   71.8612    0.7643 O.3     1  UNL1       -0.2858
     29 O          21.6773   72.3969    2.9444 O.3     1  UNL1       -0.3226
     30 O          21.2671   76.0185    0.9991 O.3     1  UNL1       -0.3794
     31 O          20.4917   73.5314   -0.3228 O.3     1  UNL1       -0.3775
     32 O          23.4725   75.5953    2.8452 O.3     1  UNL1       -0.3792
     33 C          21.8538   74.7467    1.2753 C.3     1  UNL1        0.1718
     34 C          20.8152   73.6460    1.0581 C.3     1  UNL1        0.1968
     35 C          22.3288   74.7509    2.7300 C.3     1  UNL1        0.1723
     36 C          21.3330   72.2981    1.5619 C.3     1  UNL1        0.2706
     37 C          22.7090   73.3484    3.1959 C.3     1  UNL1        0.1830
     38 H          20.9578   76.0393    0.0798 H       1  UNL1        0.2105
     39 H          20.1627   74.3832   -0.6491 H       1  UNL1        0.2106
     40 H          23.2440   76.4911    2.5516 H       1  UNL1        0.2106
     41 O          23.9258   74.0281    5.0825 O.co2   1  UNL1       -0.5466
     42 O          22.1058   72.7020    5.4408 O.co2   1  UNL1       -0.5466
     43 C          22.8514   73.3037    4.6825 C.2     1  UNL1        0.0799
@<TRIPOS>UNITY_ATOM_ATTR
2 1
charge -1
26 1
charge -1
41 1
charge -1
@<TRIPOS>BOND
     1     1     4    1
     2     1    24    1
     3     1     2    1
     4     1     3    2
     5    25    28    1
     6    25    24    1
     7    25    26    1
     8    25    27    2
     9     6    11    1
    10     6    12    1
    11    29    36    1
    12    29    37    1
    13     7     9    1
    14     7    13    1
    15     8    10    1
    16     8    14    1
    17     4     5    1
    18    28    36    1
    19    30    33    1
    20    30    38    1
    21    31    34    1
    22    31    39    1
    23    32    35    1
    24    32    40    1
    25    41    43   ar
    26    15    19    2
    27    42    43   ar
    28    16    22    2
    29    17    12    1
    30    17    19   ar
    31    17    20   ar
    32    18    19   ar
    33    18    22   ar
    34    18    23    1
    35     9    10    1
    36     9    11    1
    37    10    12    1
    38    11     5    1
    39    33    34    1
    40    33    35    1
    41    34    36    1
    42    35    37    1
    43    37    43    1
    44    20    21   ar
    45    21    22   ar
@<TRIPOS>MOLECULE
*****
 43 45 0 0 0
SMALL
GASTEIGER

@<TRIPOS>ATOM
      1 P          22.4943   71.3309   -2.1733 P.3     1  UNL1        0.2189
      2 O          21.4192   72.5113   -1.9093 O.co2   1  UNL1       -0.4371
      3 O          23.5292   71.6381   -3.2156 O.2     1  UNL1       -0.5170
      4 O          21.5785   70.0272   -2.4552 O.3     1  UNL1       -0.3112
      5 C          20.8032   69.9888   -3.6393 C.3     1  UNL1        0.1811
      6 O          19.1727   71.4820   -4.5823 O.3     1  UNL1       -0.3308
      7 O          17.3117   70.5010   -2.4456 O.3     1  UNL1       -0.3794
      8 O          16.4954   69.0981   -4.6369 O.3     1  UNL1       -0.3779
      9 C          18.3107   69.7851   -3.1723 C.3     1  UNL1        0.1713
     10 C          17.8416   69.5220   -4.5876 C.3     1  UNL1        0.1895
     11 C          19.4901   70.7216   -3.3964 C.3     1  UNL1        0.1764
     12 C          18.0534   70.8743   -5.2466 C.3     1  UNL1        0.2383
     13 H          16.5478   69.9230   -2.2903 H       1  UNL1        0.2105
     14 H          16.4128   68.2329   -4.2049 H       1  UNL1        0.2106
     15 O          16.1118   70.4521   -7.2537 O.2     1  UNL1       -0.2464
     16 O          19.2936   70.4568  -10.5884 O.2     1  UNL1       -0.2670
     17 N          18.3468   70.7613   -6.6473 N.ar    1  UNL1       -0.2551
     18 N          17.6985   70.4538   -8.9126 N.ar    1  UNL1       -0.2743
     19 C          17.2981   70.5495   -7.5733 C.ar    1  UNL1        0.3323
     20 C          19.6597   70.8619   -7.0912 C.ar    1  UNL1        0.0869
     21 C          20.0259   70.7687   -8.3711 C.ar    1  UNL1        0.0795
     22 C          18.9912   70.5467   -9.4024 C.ar    1  UNL1        0.2626
     23 H          16.9861   70.3044   -9.5756 H       1  UNL1        0.1734
     24 O          23.0890   71.0450   -0.6976 O.3     1  UNL1       -0.2703
     25 P          22.3955   70.4242    0.6243 P.3     1  UNL1        0.2208
     26 O          23.6482   70.1838    1.6209 O.co2   1  UNL1       -0.4371
     27 O          21.5660   69.1996    0.3671 O.2     1  UNL1       -0.5170
     28 O          21.5854   71.6564    1.2785 O.3     1  UNL1       -0.2858
     29 O          22.1114   73.9656    1.2793 O.3     1  UNL1       -0.3226
     30 O          20.1149   73.5569    4.8731 O.3     1  UNL1       -0.3794
     31 O          22.0523   71.5444    4.0181 O.3     1  UNL1       -0.3775
     32 O          18.7865   74.7842    2.5971 O.3     1  UNL1       -0.3792
     33 C          20.4167   73.2625    3.5091 C.3     1  UNL1        0.1718
     34 C          21.8725   72.8101    3.3933 C.3     1  UNL1        0.1968
     35 C          20.1877   74.5341    2.6891 C.3     1  UNL1        0.1723
     36 C          22.2985   72.7072    1.9281 C.3     1  UNL1        0.2706
     37 C          20.7522   74.3962    1.2781 C.3     1  UNL1        0.1830
     38 H          20.2533   72.7632    5.4136 H       1  UNL1        0.2105
     39 H          21.7836   71.6023    4.9481 H       1  UNL1        0.2106
     40 H          18.4148   74.8738    3.4886 H       1  UNL1        0.2106
     41 O          20.9229   75.5768   -0.7415 O.co2   1  UNL1       -0.5466
     42 O          20.7919   76.8064    1.1742 O.co2   1  UNL1       -0.5466
     43 C          20.8225   75.7270    0.6025 C.2     1  UNL1        0.0799
@<TRIPOS>UNITY_ATOM_ATTR
2 1
charge -1
26 1
charge -1
41 1
charge -1
@<TRIPOS>BOND
     1     1     4    1
     2     1    24    1
     3     1     2    1
     4     1     3    2
     5    25    28    1
     6    25    24    1
     7    25    26    1
     8    25    27    2
     9     6    11    1
    10     6    12    1
    11    29    36    1
    12    29    37    1
    13     7     9    1
    14     7    13    1
    15     8    10    1
    16     8    14    1
    17     4     5    1
    18    28    36    1
    19    30    33    1
    20    30    38    1
    21    31    34    1
    22    31    39    1
    23    32    35    1
    24    32    40    1
    25    41    43   ar
    26    15    19    2
    27    42    43   ar
    28    16    22    2
    29    17    12    1
    30    17    19   ar
    31    17    20   ar
    32    18    19   ar
    33    18    22   ar
    34    18    23    1
    35     9    10    1
    36     9    11    1
    37    10    12    1
    38    11     5    1
    39    33    34    1
    40    33    35    1
    41    34    36    1
    42    35    37    1
    43    37    43    1
    44    20    21   ar
    45    21    22   ar
@<TRIPOS>MOLECULE
*****
 43 45 0 0 0
SMALL
GASTEIGER

@<TRIPOS>ATOM
      1 P          21.9022   73.9670   -5.9343 P.3     1  UNL1        0.2189
      2 O          21.4671   75.0435   -4.8070 O.co2   1  UNL1       -0.4371
      3 O          22.9687   74.4360   -6.8800 O.2     1  UNL1       -0.5170
      4 O          20.5012   73.5303   -6.6158 O.3     1  UNL1       -0.3112
      5 C          19.9981   74.3093   -7.6857 C.3     1  UNL1        0.1811
      6 O          19.5721   72.0234   -8.2946 O.3     1  UNL1       -0.3308
      7 O          17.8440   73.1236  -10.4843 O.3     1  UNL1       -0.3794
      8 O          16.0184   72.3909   -8.5958 O.3     1  UNL1       -0.3779
      9 C          18.0435   73.6135   -9.1582 C.3     1  UNL1        0.1713
     10 C          17.3167   72.7367   -8.1606 C.3     1  UNL1        0.1895
     11 C          19.5011   73.3797   -8.7853 C.3     1  UNL1        0.1764
     12 C          18.2409   71.5348   -8.0649 C.3     1  UNL1        0.2383
     13 H          16.9195   73.2621  -10.7448 H       1  UNL1        0.2105
     14 H          15.4688   73.1896   -8.6400 H       1  UNL1        0.2106
     15 O          16.0373   70.0576   -7.0963 O.2     1  UNL1       -0.2464
     16 O          18.1575   69.1661   -3.1021 O.2     1  UNL1       -0.2670
     17 N          18.1904   70.9059   -6.7754 N.ar    1  UNL1       -0.2551
     18 N          17.0950   69.6158   -5.1075 N.ar    1  UNL1       -0.2743
     19 C          17.0356   70.1872   -6.3854 C.ar    1  UNL1        0.3323
     20 C          19.2761   71.0027   -5.9135 C.ar    1  UNL1        0.0869
     21 C          19.3179   70.4526   -4.6985 C.ar    1  UNL1        0.0795
     22 C          18.1517   69.6853   -4.2142 C.ar    1  UNL1        0.2626
     23 H          16.3019   69.1122   -4.8130 H       1  UNL1        0.1734
     24 O          22.3016   72.6674   -5.0600 O.3     1  UNL1       -0.2703
     25 P          23.1771   72.5256   -3.7083 P.3     1  UNL1        0.2208
     26 O          24.3748   73.5918   -3.9298 O.co2   1  UNL1       -0.4371
     27 O          23.6399   71.1271   -3.4183 O.2     1  UNL1       -0.5170
     28 O          22.2580   73.1794   -2.5549 O.3     1  UNL1       -0.2858
     29 O          21.4599   71.2535   -1.4310 O.3     1  UNL1       -0.3226
     30 O          20.2396   74.2750    1.1085 O.3     1  UNL1       -0.3794
     31 O          19.9803   74.5779   -1.7855 O.3     1  UNL1       -0.3775
     32 O          22.5289   72.6226    1.8008 O.3     1  UNL1       -0.3792
     33 C          21.0906   73.6375    0.1559 C.3     1  UNL1        0.1718
     34 C          20.3055   73.3596   -1.1263 C.3     1  UNL1        0.1968
     35 C          21.5891   72.3272    0.7694 C.3     1  UNL1        0.1723
     36 C          21.1110   72.4766   -2.0804 C.3     1  UNL1        0.2706
     37 C          22.2709   71.4473   -0.2744 C.3     1  UNL1        0.1830
     38 H          19.9106   75.1102    0.7405 H       1  UNL1        0.2105
     39 H          19.4693   75.1432   -1.1857 H       1  UNL1        0.2106
     40 H          22.1076   73.1823    2.4716 H       1  UNL1        0.2106
     41 O          23.7628   69.6993    0.1950 O.co2   1  UNL1       -0.5466
     42 O          21.5590   69.3375    0.6549 O.co2   1  UNL1       -0.5466
     43 C          22.4558   70.0577    0.2423 C.2     1  UNL1        0.0799
@<TRIPOS>UNITY_ATOM_ATTR
2 1
charge -1
26 1
charge -1
41 1
charge -1
@<TRIPOS>BOND
     1     1     4    1
     2     1    24    1
     3     1     2    1
     4     1     3    2
     5    25    28    1
     6    25    24    1
     7    25    26    1
     8    25    27    2
     9     6    11    1
    10     6    12    1
    11    29    36    1
    12    29    37    1
    13     7     9    1
    14     7    13    1
    15     8    10    1
    16     8    14    1
    17     4     5    1
    18    28    36    1
    19    30    33    1
    20    30    38    1
    21    31    34    1
    22    31    39    1
    23    32    35    1
    24    32    40    1
    25    41    43   ar
    26    15    19    2
    27    42    43   ar
    28    16    22    2
    29    17    12    1
    30    17    19   ar
    31    17    20   ar
    32    18    19   ar
    33    18    22   ar
    34    18    23    1
    35     9    10    1
    36     9    11    1
    37    10    12    1
    38    11     5    1
    39    33    34    1
    40    33    35    1
    41    34    36    1
    42    35    37    1
    43    37    43    1
    44    20    21   ar
    45    21    22   ar
@<TRIPOS>MOLECULE
*****
 43 45 0 0 0
SMALL
GASTEIGER

@<TRIPOS>ATOM
      1 P          22.8685   72.1010   -2.4097 P.3     1  UNL1        0.2189
      2 O          23.7984   73.2236   -3.1126 O.co2   1  UNL1       -0.4371
      3 O          23.3264   70.6855   -2.6060 O.2     1  UNL1       -0.5170
      4 O          21.3797   72.4386   -2.9457 O.3     1  UNL1       -0.3112
      5 C          20.6184   71.3967   -3.5284 C.3     1  UNL1        0.1811
      6 O          18.6706   72.2112   -4.6773 O.3     1  UNL1       -0.3308
      7 O          17.0757   70.9937   -2.4489 O.3     1  UNL1       -0.3794
      8 O          16.8139   69.1530   -4.4438 O.3     1  UNL1       -0.3779
      9 C          18.2748   70.5224   -3.0643 C.3     1  UNL1        0.1713
     10 C          17.9732   69.9597   -4.4371 C.3     1  UNL1        0.1895
     11 C          19.1381   71.7313   -3.3981 C.3     1  UNL1        0.1764
     12 C          17.8120   71.2220   -5.2669 C.3     1  UNL1        0.2383
     13 H          16.5078   70.2390   -2.2265 H       1  UNL1        0.2105
     14 H          16.9671   68.3624   -3.9021 H       1  UNL1        0.2106
     15 O          16.0500   70.3908   -7.3116 O.2     1  UNL1       -0.2464
     16 O          19.3867   70.5158  -10.4889 O.2     1  UNL1       -0.2670
     17 N          18.1938   71.0293   -6.6373 N.ar    1  UNL1       -0.2551
     18 N          17.7138   70.4529   -8.8919 N.ar    1  UNL1       -0.2743
     19 C          17.2314   70.6098   -7.5859 C.ar    1  UNL1        0.3323
     20 C          19.5072   71.2569   -7.0299 C.ar    1  UNL1        0.0869
     21 C          19.9520   71.1032   -8.2786 C.ar    1  UNL1        0.0795
     22 C          19.0106   70.6664   -9.3304 C.ar    1  UNL1        0.2626
     23 H          17.0626   70.1594   -9.5696 H       1  UNL1        0.1734
     24 O          22.8182   72.5848   -0.8682 O.3     1  UNL1       -0.2703
     25 P          21.6445   72.4816    0.2389 P.3     1  UNL1        0.2208
     26 O          21.7088   70.9321    0.7027 O.co2   1  UNL1       -0.4371
     27 O          20.2962   72.9253   -0.2500 O.2     1  UNL1       -0.5170
     28 O          22.2030   73.3094    1.5058 O.3     1  UNL1       -0.2858
     29 O          23.9196   73.2766    3.1372 O.3     1  UNL1       -0.3226
     30 O          20.5332   73.5663    5.4859 O.3     1  UNL1       -0.3794
     31 O          20.5831   71.7823    3.1731 O.3     1  UNL1       -0.3775
     32 O          22.2207   75.8957    5.0649 O.3     1  UNL1       -0.3792
     33 C          21.3363   73.7802    4.3251 C.3     1  UNL1        0.1718
     34 C          21.7259   72.4326    3.7170 C.3     1  UNL1        0.1968
     35 C          22.5865   74.5533    4.7509 C.3     1  UNL1        0.1723
     36 C          22.7694   72.6116    2.6135 C.3     1  UNL1        0.2706
     37 C          23.6308   74.5798    3.6386 C.3     1  UNL1        0.1830
     38 H          19.7328   73.0764    5.2397 H       1  UNL1        0.2105
     39 H          19.9167   71.6657    3.8678 H       1  UNL1        0.2106
     40 H          21.5562   75.8930    5.7715 H       1  UNL1        0.2106
     41 O          25.4972   74.0986    4.9753 O.co2   1  UNL1       -0.5466
     42 O          25.4789   76.1088    3.8992 O.co2   1  UNL1       -0.5466
     43 C          24.9527   75.0380    4.1629 C.2     1  UNL1        0.0799
@<TRIPOS>UNITY_ATOM_ATTR
2 1
charge -1
26 1
charge -1
41 1
charge -1
@<TRIPOS>BOND
     1     1     4    1
     2     1    24    1
     3     1     2    1
     4     1     3    2
     5    25    28    1
     6    25    24    1
     7    25    26    1
     8    25    27    2
     9     6    11    1
    10     6    12    1
    11    29    36    1
    12    29    37    1
    13     7     9    1
    14     7    13    1
    15     8    10    1
    16     8    14    1
    17     4     5    1
    18    28    36    1
    19    30    33    1
    20    30    38    1
    21    31    34    1
    22    31    39    1
    23    32    35    1
    24    32    40    1
    25    41    43   ar
    26    15    19    2
    27    42    43   ar
    28    16    22    2
    29    17    12    1
    30    17    19   ar
    31    17    20   ar
    32    18    19   ar
    33    18    22   ar
    34    18    23    1
    35     9    10    1
    36     9    11    1
    37    10    12    1
    38    11     5    1
    39    33    34    1
    40    33    35    1
    41    34    36    1
    42    35    37    1
    43    37    43    1
    44    20    21   ar
    45    21    22   ar
@<TRIPOS>MOLECULE
*****
 43 45 0 0 0
SMALL
GASTEIGER

@<TRIPOS>ATOM
      1 P          22.4802   71.7151   -2.7048 P.3     1  UNL1        0.2189
      2 O          23.0285   73.0783   -2.0265 O.co2   1  UNL1       -0.4371
      3 O          23.5198   70.8975   -3.4137 O.2     1  UNL1       -0.5170
      4 O          21.2339   72.2067   -3.6121 O.3     1  UNL1       -0.3112
      5 C          21.3402   73.4430   -4.2939 C.3     1  UNL1        0.1811
      6 O          21.4836   72.0201   -6.2259 O.3     1  UNL1       -0.3308
      7 O          22.8586   74.3136   -7.5825 O.3     1  UNL1       -0.3794
      8 O          20.3199   74.4757   -8.5646 O.3     1  UNL1       -0.3779
      9 C          21.7914   74.3329   -6.6342 C.3     1  UNL1        0.1713
     10 C          20.4994   73.8941   -7.2902 C.3     1  UNL1        0.1895
     11 C          22.0348   73.2145   -5.6302 C.3     1  UNL1        0.1764
     12 C          20.6747   72.3864   -7.3549 C.3     1  UNL1        0.2383
     13 H          22.7250   75.0197   -8.2346 H       1  UNL1        0.2105
     14 H          20.2126   75.4356   -8.4697 H       1  UNL1        0.2106
     15 O          18.9823   71.9050   -9.5641 O.2     1  UNL1       -0.2464
     16 O          15.9000   69.6869   -6.9519 O.2     1  UNL1       -0.2670
     17 N          19.4241   71.6856   -7.2804 N.ar    1  UNL1       -0.2551
     18 N          17.4483   70.8016   -8.2608 N.ar    1  UNL1       -0.2743
     19 C          18.6496   71.4975   -8.4496 C.ar    1  UNL1        0.3323
     20 C          18.9773   71.1919   -6.0608 C.ar    1  UNL1        0.0869
     21 C          17.8300   70.5305   -5.8965 C.ar    1  UNL1        0.0795
     22 C          16.9614   70.2922   -7.0679 C.ar    1  UNL1        0.2626
     23 H          16.8910   70.6601   -9.0600 H       1  UNL1        0.1734
     24 O          21.7567   70.9615   -1.4713 O.3     1  UNL1       -0.2703
     25 P          22.3310   70.4758   -0.0403 P.3     1  UNL1        0.2208
     26 O          23.8556   70.0499   -0.3789 O.co2   1  UNL1       -0.4371
     27 O          21.5186   69.3968    0.6152 O.2     1  UNL1       -0.5170
     28 O          22.4693   71.8296    0.8261 O.3     1  UNL1       -0.2858
     29 O          21.7356   72.4716    2.9845 O.3     1  UNL1       -0.3226
     30 O          21.1746   75.9550    0.8351 O.3     1  UNL1       -0.3794
     31 O          20.4573   73.3698   -0.3209 O.3     1  UNL1       -0.3775
     32 O          23.4243   75.7128    2.6603 O.3     1  UNL1       -0.3792
     33 C          21.8069   74.7211    1.1752 C.3     1  UNL1        0.1718
     34 C          20.8009   73.5773    1.0442 C.3     1  UNL1        0.1968
     35 C          22.3067   74.8276    2.6177 C.3     1  UNL1        0.1723
     36 C          21.3708   72.2790    1.6173 C.3     1  UNL1        0.2706
     37 C          22.7402   73.4683    3.1590 C.3     1  UNL1        0.1830
     38 H          20.8488   75.9107   -0.0776 H       1  UNL1        0.2105
     39 H          20.0952   74.1897   -0.6911 H       1  UNL1        0.2106
     40 H          23.1618   76.5817    2.3183 H       1  UNL1        0.2106
     41 O          22.1995   72.5282    5.2387 O.co2   1  UNL1       -0.5466
     42 O          23.5941   74.3321    5.2437 O.co2   1  UNL1       -0.5466
     43 C          22.9098   73.5177    4.6426 C.2     1  UNL1        0.0799
@<TRIPOS>UNITY_ATOM_ATTR
2 1
charge -1
26 1
charge -1
41 1
charge -1
@<TRIPOS>BOND
     1     1     4    1
     2     1    24    1
     3     1     2    1
     4     1     3    2
     5    25    28    1
     6    25    24    1
     7    25    26    1
     8    25    27    2
     9     6    11    1
    10     6    12    1
    11    29    36    1
    12    29    37    1
    13     7     9    1
    14     7    13    1
    15     8    10    1
    16     8    14    1
    17     4     5    1
    18    28    36    1
    19    30    33    1
    20    30    38    1
    21    31    34    1
    22    31    39    1
    23    32    35    1
    24    32    40    1
    25    41    43   ar
    26    15    19    2
    27    42    43   ar
    28    16    22    2
    29    17    12    1
    30    17    19   ar
    31    17    20   ar
    32    18    19   ar
    33    18    22   ar
    34    18    23    1
    35     9    10    1
    36     9    11    1
    37    10    12    1
    38    11     5    1
    39    33    34    1
    40    33    35    1
    41    34    36    1
    42    35    37    1
    43    37    43    1
    44    20    21   ar
    45    21    22   ar
@<TRIPOS>MOLECULE
*****
 43 45 0 0 0
SMALL
GASTEIGER

@<TRIPOS>ATOM
      1 P          22.9987   71.9377   -3.3445 P.3     1  UNL1        0.2189
      2 O          23.7593   72.9705   -4.3311 O.co2   1  UNL1       -0.4371
      3 O          23.6436   70.5884   -3.2207 O.2     1  UNL1       -0.5170
      4 O          21.4723   71.9403   -3.8812 O.3     1  UNL1       -0.3112
      5 C          20.6324   70.8540   -3.5362 C.3     1  UNL1        0.1811
      6 O          18.8084   71.9465   -4.6574 O.3     1  UNL1       -0.3308
      7 O          17.0555   70.8309   -2.4954 O.3     1  UNL1       -0.3794
      8 O          16.5972   69.1256   -4.5734 O.3     1  UNL1       -0.3779
      9 C          18.1962   70.2471   -3.1251 C.3     1  UNL1        0.1713
     10 C          17.8444   69.7864   -4.5237 C.3     1  UNL1        0.1895
     11 C          19.2013   71.3575   -3.3988 C.3     1  UNL1        0.1764
     12 C          17.8442   71.0946   -5.2960 C.3     1  UNL1        0.2383
     13 H          16.3991   70.1405   -2.3106 H       1  UNL1        0.2105
     14 H          16.6489   68.2990   -4.0675 H       1  UNL1        0.2106
     15 O          16.0288   70.4848   -7.3718 O.2     1  UNL1       -0.2464
     16 O          19.3790   70.4427  -10.5369 O.2     1  UNL1       -0.2670
     17 N          18.2151   70.9189   -6.6717 N.ar    1  UNL1       -0.2551
     18 N          17.6993   70.4634   -8.9461 N.ar    1  UNL1       -0.2743
     19 C          17.2256   70.6142   -7.6361 C.ar    1  UNL1        0.3323
     20 C          19.5447   71.0500   -7.0538 C.ar    1  UNL1        0.0869
     21 C          19.9810   70.9035   -8.3064 C.ar    1  UNL1        0.0795
     22 C          19.0114   70.5835   -9.3745 C.ar    1  UNL1        0.2626
     23 H          17.0292   70.2490   -9.6348 H       1  UNL1        0.1734
     24 O          22.8985   72.7656   -1.9598 O.3     1  UNL1       -0.2703
     25 P          22.6367   74.3360   -1.6786 P.3     1  UNL1        0.2208
     26 O          21.4503   74.7048   -2.7164 O.co2   1  UNL1       -0.4371
     27 O          23.8600   75.1968   -1.8066 O.2     1  UNL1       -0.5170
     28 O          21.9357   74.3805   -0.2264 O.3     1  UNL1       -0.2858
     29 O          21.1463   72.1696    0.0871 O.3     1  UNL1       -0.3226
     30 O          20.3327   73.8812    3.7581 O.3     1  UNL1       -0.3794
     31 O          19.8179   75.3564    1.2897 O.3     1  UNL1       -0.3775
     32 O          22.5864   72.0693    3.4602 O.3     1  UNL1       -0.3792
     33 C          21.0550   73.6870    2.5422 C.3     1  UNL1        0.1718
     34 C          20.1389   73.9716    1.3517 C.3     1  UNL1        0.1968
     35 C          21.5391   72.2357    2.5063 C.3     1  UNL1        0.1723
     36 C          20.8029   73.5550    0.0385 C.3     1  UNL1        0.2706
     37 C          22.0719   71.8601    1.1266 C.3     1  UNL1        0.1830
     38 H          20.0151   74.7968    3.8031 H       1  UNL1        0.2105
     39 H          19.3965   75.6277    2.1199 H       1  UNL1        0.2106
     40 H          22.2604   72.3053    4.3428 H       1  UNL1        0.2106
     41 O          23.3053   69.9534    1.7135 O.co2   1  UNL1       -0.5466
     42 O          21.4973   69.6462    0.3586 O.co2   1  UNL1       -0.5466
     43 C          22.2309   70.3796    1.0043 C.2     1  UNL1        0.0799
@<TRIPOS>UNITY_ATOM_ATTR
2 1
charge -1
26 1
charge -1
41 1
charge -1
@<TRIPOS>BOND
     1     1     4    1
     2     1    24    1
     3     1     2    1
     4     1     3    2
     5    25    28    1
     6    25    24    1
     7    25    26    1
     8    25    27    2
     9     6    11    1
    10     6    12    1
    11    29    36    1
    12    29    37    1
    13     7     9    1
    14     7    13    1
    15     8    10    1
    16     8    14    1
    17     4     5    1
    18    28    36    1
    19    30    33    1
    20    30    38    1
    21    31    34    1
    22    31    39    1
    23    32    35    1
    24    32    40    1
    25    41    43   ar
    26    15    19    2
    27    42    43   ar
    28    16    22    2
    29    17    12    1
    30    17    19   ar
    31    17    20   ar
    32    18    19   ar
    33    18    22   ar
    34    18    23    1
    35     9    10    1
    36     9    11    1
    37    10    12    1
    38    11     5    1
    39    33    34    1
    40    33    35    1
    41    34    36    1
    42    35    37    1
    43    37    43    1
    44    20    21   ar
    45    21    22   ar
@<TRIPOS>MOLECULE
*****
 43 45 0 0 0
SMALL
GASTEIGER

@<TRIPOS>ATOM
      1 P          21.4749   70.3979   -1.7325 P.3     1  UNL1        0.2189
      2 O          23.0621   70.6910   -1.8508 O.co2   1  UNL1       -0.4371
      3 O          21.0018   69.1704   -2.4543 O.2     1  UNL1       -0.5170
      4 O          20.7877   71.7899   -2.1886 O.3     1  UNL1       -0.3112
      5 C          20.2802   71.8935   -3.5063 C.3     1  UNL1        0.1811
      6 O          18.3141   72.4829   -4.7572 O.3     1  UNL1       -0.3308
      7 O          16.7475   71.2223   -2.5327 O.3     1  UNL1       -0.3794
      8 O          16.7242   69.2841   -4.4507 O.3     1  UNL1       -0.3779
      9 C          18.0059   70.8343   -3.0845 C.3     1  UNL1        0.1713
     10 C          17.8074   70.1902   -4.4403 C.3     1  UNL1        0.1895
     11 C          18.7724   72.1002   -3.4423 C.3     1  UNL1        0.1764
     12 C          17.5685   71.3975   -5.3310 C.3     1  UNL1        0.2383
     13 H          16.2396   70.4300   -2.2963 H       1  UNL1        0.2105
     14 H          16.9250   68.5335   -3.8691 H       1  UNL1        0.2106
     15 O          15.9778   70.2914   -7.3859 O.2     1  UNL1       -0.2464
     16 O          19.3972   70.6190  -10.4591 O.2     1  UNL1       -0.2670
     17 N          18.0180   71.1826   -6.6774 N.ar    1  UNL1       -0.2551
     18 N          17.6827   70.4546   -8.9143 N.ar    1  UNL1       -0.2743
     19 C          17.1394   70.6204   -7.6335 C.ar    1  UNL1        0.3323
     20 C          19.3142   71.5286   -7.0394 C.ar    1  UNL1        0.0869
     21 C          19.8177   71.3647   -8.2643 C.ar    1  UNL1        0.0795
     22 C          18.9656   70.7828   -9.3220 C.ar    1  UNL1        0.2626
     23 H          17.0906   70.0631   -9.5966 H       1  UNL1        0.1734
     24 O          21.2279   70.3771   -0.1351 O.3     1  UNL1       -0.2703
     25 P          22.0511   71.0633    1.0753 P.3     1  UNL1        0.2208
     26 O          23.1874   69.9632    1.4202 O.co2   1  UNL1       -0.4371
     27 O          21.2028   71.4646    2.2472 O.2     1  UNL1       -0.5170
     28 O          22.8571   72.2784    0.3849 O.3     1  UNL1       -0.2858
     29 O          22.1957   74.2660    1.4899 O.3     1  UNL1       -0.3226
     30 O          24.9451   75.6975   -1.2413 O.3     1  UNL1       -0.3794
     31 O          23.0027   73.6607   -2.0242 O.3     1  UNL1       -0.3775
     32 O          25.6672   75.4516    1.5639 O.3     1  UNL1       -0.3792
     33 C          24.3748   74.7457   -0.3431 C.3     1  UNL1        0.1718
     34 C          22.9608   74.3908   -0.8036 C.3     1  UNL1        0.1968
     35 C          24.3382   75.3745    1.0516 C.3     1  UNL1        0.1723
     36 C          22.2352   73.5552    0.2519 C.3     1  UNL1        0.2706
     37 C          23.4917   74.5464    2.0140 C.3     1  UNL1        0.1830
     38 H          24.9785   75.3199   -2.1344 H       1  UNL1        0.2105
     39 H          23.4620   74.1850   -2.6984 H       1  UNL1        0.2106
     40 H          26.2164   75.9760    0.9604 H       1  UNL1        0.2106
     41 O          22.0686   74.8488    3.8538 O.co2   1  UNL1       -0.5466
     42 O          23.8601   76.2491    3.6834 O.co2   1  UNL1       -0.5466
     43 C          23.1910   75.3201    3.2563 C.2     1  UNL1        0.0799
@<TRIPOS>UNITY_ATOM_ATTR
2 1
charge -1
26 1
charge -1
41 1
charge -1
@<TRIPOS>BOND
     1     1     4    1
     2     1    24    1
     3     1     2    1
     4     1     3    2
     5    25    28    1
     6    25    24    1
     7    25    26    1
     8    25    27    2
     9     6    11    1
    10     6    12    1
    11    29    36    1
    12    29    37    1
    13     7     9    1
    14     7    13    1
    15     8    10    1
    16     8    14    1
    17     4     5    1
    18    28    36    1
    19    30    33    1
    20    30    38    1
    21    31    34    1
    22    31    39    1
    23    32    35    1
    24    32    40    1
    25    41    43   ar
    26    15    19    2
    27    42    43   ar
    28    16    22    2
    29    17    12    1
    30    17    19   ar
    31    17    20   ar
    32    18    19   ar
    33    18    22   ar
    34    18    23    1
    35     9    10    1
    36     9    11    1
    37    10    12    1
    38    11     5    1
    39    33    34    1
    40    33    35    1
    41    34    36    1
    42    35    37    1
    43    37    43    1
    44    20    21   ar
    45    21    22   ar
@<TRIPOS>MOLECULE
*****
 43 45 0 0 0
SMALL
GASTEIGER

@<TRIPOS>ATOM
      1 P          22.6715   71.8851   -2.1727 P.3     1  UNL1        0.2189
      2 O          22.7231   70.3219   -2.5881 O.co2   1  UNL1       -0.4371
      3 O          22.9314   72.1639   -0.7213 O.2     1  UNL1       -0.5170
      4 O          21.2435   72.3911   -2.7406 O.3     1  UNL1       -0.3112
      5 C          20.5269   71.5439   -3.6199 C.3     1  UNL1        0.1811
      6 O          18.5696   72.2872   -4.8007 O.3     1  UNL1       -0.3308
      7 O          16.9873   71.1059   -2.5441 O.3     1  UNL1       -0.3794
      8 O          16.7697   69.2026   -4.4848 O.3     1  UNL1       -0.3779
      9 C          18.1979   70.6394   -3.1402 C.3     1  UNL1        0.1713
     10 C          17.9136   70.0309   -4.4970 C.3     1  UNL1        0.1895
     11 C          19.0399   71.8541   -3.5059 C.3     1  UNL1        0.1764
     12 C          17.7327   71.2649   -5.3644 C.3     1  UNL1        0.2383
     13 H          16.4326   70.3474   -2.3019 H       1  UNL1        0.2105
     14 H          16.9351   68.4313   -3.9194 H       1  UNL1        0.2106
     15 O          16.0025   70.3174   -7.3856 O.2     1  UNL1       -0.2464
     16 O          19.3451   70.4364  -10.5569 O.2     1  UNL1       -0.2670
     17 N          18.1246   71.0393   -6.7269 N.ar    1  UNL1       -0.2551
     18 N          17.6692   70.3766   -8.9629 N.ar    1  UNL1       -0.2743
     19 C          17.1780   70.5615   -7.6638 C.ar    1  UNL1        0.3323
     20 C          19.4323   71.2920   -7.1234 C.ar    1  UNL1        0.0869
     21 C          19.8856   71.1110   -8.3653 C.ar    1  UNL1        0.0795
     22 C          18.9608   70.6133   -9.4048 C.ar    1  UNL1        0.2626
     23 H          17.0291   70.0427   -9.6323 H       1  UNL1        0.1734
     24 O          23.7285   72.5657   -3.1888 O.3     1  UNL1       -0.2703
     25 P          23.8248   74.0719   -3.7683 P.3     1  UNL1        0.2208
     26 O          23.4552   74.9863   -2.4848 O.co2   1  UNL1       -0.4371
     27 O          22.9672   74.3236   -4.9746 O.2     1  UNL1       -0.5170
     28 O          25.4013   74.3196   -4.0043 O.3     1  UNL1       -0.2858
     29 O          27.4061   75.1332   -3.0409 O.3     1  UNL1       -0.3226
     30 O          26.9107   77.6973   -6.2421 O.3     1  UNL1       -0.3794
     31 O          24.6240   76.9236   -4.5969 O.3     1  UNL1       -0.3775
     32 O          28.8948   75.5761   -6.3650 O.3     1  UNL1       -0.3792
     33 C          26.8127   76.4606   -5.5357 C.3     1  UNL1        0.1718
     34 C          25.9829   76.6602   -4.2672 C.3     1  UNL1        0.1968
     35 C          28.2298   76.0063   -5.1788 C.3     1  UNL1        0.1723
     36 C          26.0472   75.4226   -3.3711 C.3     1  UNL1        0.2706
     37 C          28.2099   74.8494   -4.1839 C.3     1  UNL1        0.1830
     38 H          26.0220   78.0056   -6.4794 H       1  UNL1        0.2105
     39 H          24.5758   77.7075   -5.1657 H       1  UNL1        0.2106
     40 H          28.9141   76.3033   -7.0067 H       1  UNL1        0.2106
     41 O          29.4744   74.3622   -2.2694 O.co2   1  UNL1       -0.5466
     42 O          30.6170   74.6875   -4.2156 O.co2   1  UNL1       -0.5466
     43 C          29.5659   74.6328   -3.5951 C.2     1  UNL1        0.0799
@<TRIPOS>UNITY_ATOM_ATTR
2 1
charge -1
26 1
charge -1
41 1
charge -1
@<TRIPOS>BOND
     1     1     4    1
     2     1    24    1
     3     1     2    1
     4     1     3    2
     5    25    28    1
     6    25    24    1
     7    25    26    1
     8    25    27    2
     9     6    11    1
    10     6    12    1
    11    29    36    1
    12    29    37    1
    13     7     9    1
    14     7    13    1
    15     8    10    1
    16     8    14    1
    17     4     5    1
    18    28    36    1
    19    30    33    1
    20    30    38    1
    21    31    34    1
    22    31    39    1
    23    32    35    1
    24    32    40    1
    25    41    43   ar
    26    15    19    2
    27    42    43   ar
    28    16    22    2
    29    17    12    1
    30    17    19   ar
    31    17    20   ar
    32    18    19   ar
    33    18    22   ar
    34    18    23    1
    35     9    10    1
    36     9    11    1
    37    10    12    1
    38    11     5    1
    39    33    34    1
    40    33    35    1
    41    34    36    1
    42    35    37    1
    43    37    43    1
    44    20    21   ar
    45    21    22   ar
@<TRIPOS>MOLECULE
*****
 43 45 0 0 0
SMALL
GASTEIGER

@<TRIPOS>ATOM
      1 P          21.8092   70.5719   -1.0750 P.3     1  UNL1        0.2189
      2 O          23.2259   69.9431   -0.6097 O.co2   1  UNL1       -0.4371
      3 O          20.7985   70.7368    0.0218 O.2     1  UNL1       -0.5170
      4 O          21.3559   69.6340   -2.3131 O.3     1  UNL1       -0.3112
      5 C          20.9002   70.2557   -3.5007 C.3     1  UNL1        0.1811
      6 O          19.1423   71.6130   -4.4200 O.3     1  UNL1       -0.3308
      7 O          17.3778   70.4348   -2.3010 O.3     1  UNL1       -0.3794
      8 O          16.6881   69.0012   -4.5157 O.3     1  UNL1       -0.3779
      9 C          18.4361   69.8230   -3.0388 C.3     1  UNL1        0.1713
     10 C          17.9912   69.5425   -4.4586 C.3     1  UNL1        0.1895
     11 C          19.5271   70.8644   -3.2466 C.3     1  UNL1        0.1764
     12 C          18.0811   70.9190   -5.0950 C.3     1  UNL1        0.2383
     13 H          16.6687   69.7885   -2.1558 H       1  UNL1        0.2105
     14 H          16.6833   68.1250   -4.0982 H       1  UNL1        0.2106
     15 O          16.1712   70.4229   -7.1155 O.2     1  UNL1       -0.2464
     16 O          19.3498   70.6988  -10.4419 O.2     1  UNL1       -0.2670
     17 N          18.3823   70.8558   -6.4972 N.ar    1  UNL1       -0.2551
     18 N          17.7563   70.5598   -8.7702 N.ar    1  UNL1       -0.2743
     19 C          17.3495   70.6005   -7.4301 C.ar    1  UNL1        0.3323
     20 C          19.6869   71.0472   -6.9357 C.ar    1  UNL1        0.0869
     21 C          20.0593   71.0056   -8.2164 C.ar    1  UNL1        0.0795
     22 C          19.0413   70.7432   -9.2548 C.ar    1  UNL1        0.2626
     23 H          17.0552   70.3815   -9.4381 H       1  UNL1        0.1734
     24 O          22.2445   71.9483   -1.8021 O.3     1  UNL1       -0.2703
     25 P          22.4814   73.4334   -1.2087 P.3     1  UNL1        0.2208
     26 O          22.9064   73.1541    0.3281 O.co2   1  UNL1       -0.4371
     27 O          21.3068   74.3547   -1.3677 O.2     1  UNL1       -0.5170
     28 O          23.8359   73.9466   -1.9188 O.3     1  UNL1       -0.2858
     29 O          24.7328   76.0226   -1.2153 O.3     1  UNL1       -0.3226
     30 O          26.8029   75.3599   -4.7286 O.3     1  UNL1       -0.3794
     31 O          23.9417   74.7930   -4.5662 O.3     1  UNL1       -0.3775
     32 O          28.1117   74.9531   -2.1649 O.3     1  UNL1       -0.3792
     33 C          26.1247   74.9941   -3.5268 C.3     1  UNL1        0.1718
     34 C          24.6829   75.5002   -3.5787 C.3     1  UNL1        0.1968
     35 C          26.8699   75.6297   -2.3510 C.3     1  UNL1        0.1723
     36 C          23.9947   75.3311   -2.2234 C.3     1  UNL1        0.2706
     37 C          26.0620   75.5304   -1.0603 C.3     1  UNL1        0.1830
     38 H          26.3471   74.9672   -5.4897 H       1  UNL1        0.2105
     39 H          24.3729   74.8958   -5.4287 H       1  UNL1        0.2106
     40 H          28.6355   75.0088   -2.9793 H       1  UNL1        0.2106
     41 O          27.4927   77.3190   -0.5546 O.co2   1  UNL1       -0.5466
     42 O          26.3603   76.3697    1.1820 O.co2   1  UNL1       -0.5466
     43 C          26.6308   76.4259   -0.0082 C.2     1  UNL1        0.0799
@<TRIPOS>UNITY_ATOM_ATTR
2 1
charge -1
26 1
charge -1
41 1
charge -1
@<TRIPOS>BOND
     1     1     4    1
     2     1    24    1
     3     1     2    1
     4     1     3    2
     5    25    28    1
     6    25    24    1
     7    25    26    1
     8    25    27    2
     9     6    11    1
    10     6    12    1
    11    29    36    1
    12    29    37    1
    13     7     9    1
    14     7    13    1
    15     8    10    1
    16     8    14    1
    17     4     5    1
    18    28    36    1
    19    30    33    1
    20    30    38    1
    21    31    34    1
    22    31    39    1
    23    32    35    1
    24    32    40    1
    25    41    43   ar
    26    15    19    2
    27    42    43   ar
    28    16    22    2
    29    17    12    1
    30    17    19   ar
    31    17    20   ar
    32    18    19   ar
    33    18    22   ar
    34    18    23    1
    35     9    10    1
    36     9    11    1
    37    10    12    1
    38    11     5    1
    39    33    34    1
    40    33    35    1
    41    34    36    1
    42    35    37    1
    43    37    43    1
    44    20    21   ar
    45    21    22   ar
@<TRIPOS>MOLECULE
*****
 43 45 0 0 0
SMALL
GASTEIGER

@<TRIPOS>ATOM
      1 P          21.6794   70.9881   -1.1584 P.3     1  UNL1        0.2189
      2 O          23.2128   70.6241   -1.5261 O.co2   1  UNL1       -0.4371
      3 O          20.7910   69.8057   -0.9046 O.2     1  UNL1       -0.5170
      4 O          21.2154   71.9711   -2.3568 O.3     1  UNL1       -0.3112
      5 C          20.5367   71.4113   -3.4661 C.3     1  UNL1        0.1811
      6 O          18.6065   72.2335   -4.6392 O.3     1  UNL1       -0.3308
      7 O          16.9771   70.9857   -2.4530 O.3     1  UNL1       -0.3794
      8 O          16.7555   69.1675   -4.4732 O.3     1  UNL1       -0.3779
      9 C          18.1881   70.5250   -3.0528 C.3     1  UNL1        0.1713
     10 C          17.9120   69.9774   -4.4371 C.3     1  UNL1        0.1895
     11 C          19.0533   71.7402   -3.3577 C.3     1  UNL1        0.1764
     12 C          17.7613   71.2487   -5.2549 C.3     1  UNL1        0.2383
     13 H          16.4077   70.2268   -2.2491 H       1  UNL1        0.2105
     14 H          16.9017   68.3711   -3.9381 H       1  UNL1        0.2106
     15 O          16.0630   70.3365   -7.3189 O.2     1  UNL1       -0.2464
     16 O          19.4269   70.6127  -10.4577 O.2     1  UNL1       -0.2670
     17 N          18.1674   71.0731   -6.6206 N.ar    1  UNL1       -0.2551
     18 N          17.7403   70.4740   -8.8800 N.ar    1  UNL1       -0.2743
     19 C          17.2362   70.6093   -7.5798 C.ar    1  UNL1        0.3323
     20 C          19.4734   71.3605   -6.9983 C.ar    1  UNL1        0.0869
     21 C          19.9392   71.2267   -8.2417 C.ar    1  UNL1        0.0795
     22 C          19.0309   70.7466   -9.3038 C.ar    1  UNL1        0.2626
     23 H          17.1112   70.1506   -9.5648 H       1  UNL1        0.1734
     24 O          21.8362   71.9943    0.0969 O.3     1  UNL1       -0.2703
     25 P          22.0530   71.7008    1.6718 P.3     1  UNL1        0.2208
     26 O          22.6879   70.2118    1.6866 O.co2   1  UNL1       -0.4371
     27 O          20.8120   71.8521    2.5030 O.2     1  UNL1       -0.5170
     28 O          23.2705   72.6668    2.1044 O.3     1  UNL1       -0.2858
     29 O          23.7075   74.9357    1.5846 O.3     1  UNL1       -0.3226
     30 O          19.6438   74.6809    0.8856 O.3     1  UNL1       -0.3794
     31 O          20.8282   73.3887    3.2226 O.3     1  UNL1       -0.3775
     32 O          21.5065   74.7513   -1.3452 O.3     1  UNL1       -0.3792
     33 C          20.9884   74.2050    0.9435 C.3     1  UNL1        0.1718
     34 C          21.5073   74.3106    2.3778 C.3     1  UNL1        0.1968
     35 C          21.8362   75.0677    0.0060 C.3     1  UNL1        0.1723
     36 C          23.0092   74.0287    2.4385 C.3     1  UNL1        0.2706
     37 C          23.3270   74.8185    0.2155 C.3     1  UNL1        0.1830
     38 H          19.0862   74.1475    1.4737 H       1  UNL1        0.2105
     39 H          19.8747   73.5617    3.1887 H       1  UNL1        0.2106
     40 H          20.5601   74.9054   -1.4917 H       1  UNL1        0.2106
     41 O          23.3462   76.8852   -0.8935 O.co2   1  UNL1       -0.5466
     42 O          25.3556   75.8537   -0.5812 O.co2   1  UNL1       -0.5466
     43 C          24.1410   75.8795   -0.4509 C.2     1  UNL1        0.0799
@<TRIPOS>UNITY_ATOM_ATTR
2 1
charge -1
26 1
charge -1
41 1
charge -1
@<TRIPOS>BOND
     1     1     4    1
     2     1    24    1
     3     1     2    1
     4     1     3    2
     5    25    28    1
     6    25    24    1
     7    25    26    1
     8    25    27    2
     9     6    11    1
    10     6    12    1
    11    29    36    1
    12    29    37    1
    13     7     9    1
    14     7    13    1
    15     8    10    1
    16     8    14    1
    17     4     5    1
    18    28    36    1
    19    30    33    1
    20    30    38    1
    21    31    34    1
    22    31    39    1
    23    32    35    1
    24    32    40    1
    25    41    43   ar
    26    15    19    2
    27    42    43   ar
    28    16    22    2
    29    17    12    1
    30    17    19   ar
    31    17    20   ar
    32    18    19   ar
    33    18    22   ar
    34    18    23    1
    35     9    10    1
    36     9    11    1
    37    10    12    1
    38    11     5    1
    39    33    34    1
    40    33    35    1
    41    34    36    1
    42    35    37    1
    43    37    43    1
    44    20    21   ar
    45    21    22   ar
@<TRIPOS>MOLECULE
*****
 43 45 0 0 0
SMALL
GASTEIGER

@<TRIPOS>ATOM
      1 P          21.8583   70.5860   -1.0361 P.3     1  UNL1        0.2189
      2 O          23.2940   69.9477   -0.6485 O.co2   1  UNL1       -0.4371
      3 O          20.8765   70.6711    0.0955 O.2     1  UNL1       -0.5170
      4 O          21.3811   69.7199   -2.3168 O.3     1  UNL1       -0.3112
      5 C          20.9371   70.4087   -3.4714 C.3     1  UNL1        0.1811
      6 O          19.1269   71.7014   -4.3822 O.3     1  UNL1       -0.3308
      7 O          17.4161   70.4596   -2.2555 O.3     1  UNL1       -0.3794
      8 O          16.7687   69.0022   -4.4675 O.3     1  UNL1       -0.3779
      9 C          18.4925   69.8867   -2.9983 C.3     1  UNL1        0.1713
     10 C          18.0516   69.5905   -4.4161 C.3     1  UNL1        0.1895
     11 C          19.5440   70.9671   -3.2108 C.3     1  UNL1        0.1764
     12 C          18.0885   70.9695   -5.0525 C.3     1  UNL1        0.2383
     13 H          16.7316   69.7880   -2.1073 H       1  UNL1        0.2105
     14 H          16.7976   68.1264   -4.0502 H       1  UNL1        0.2106
     15 O          16.1871   70.4121   -7.0651 O.2     1  UNL1       -0.2464
     16 O          19.3399   70.7959  -10.4052 O.2     1  UNL1       -0.2670
     17 N          18.3853   70.9175   -6.4561 N.ar    1  UNL1       -0.2551
     18 N          17.7594   70.6028   -8.7266 N.ar    1  UNL1       -0.2743
     19 C          17.3574   70.6289   -7.3847 C.ar    1  UNL1        0.3323
     20 C          19.6809   71.1523   -6.9002 C.ar    1  UNL1        0.0869
     21 C          20.0488   71.1240   -8.1826 C.ar    1  UNL1        0.0795
     22 C          19.0354   70.8291   -9.2167 C.ar    1  UNL1        0.2626
     23 H          17.0616   70.4020   -9.3915 H       1  UNL1        0.1734
     24 O          22.2585   72.0096   -1.6889 O.3     1  UNL1       -0.2703
     25 P          22.0608   73.5194   -1.1457 P.3     1  UNL1        0.2208
     26 O          23.1109   73.6110    0.0828 O.co2   1  UNL1       -0.4371
     27 O          20.6461   73.8608   -0.7768 O.2     1  UNL1       -0.5170
     28 O          22.6971   74.4547   -2.2959 O.3     1  UNL1       -0.2858
     29 O          23.2069   73.5948   -4.4429 O.3     1  UNL1       -0.3226
     30 O          25.5273   77.0112   -4.3329 O.3     1  UNL1       -0.3794
     31 O          25.3377   75.2738   -1.9919 O.3     1  UNL1       -0.3775
     32 O          23.0731   76.9637   -5.8903 O.3     1  UNL1       -0.3792
     33 C          24.3970   76.1933   -4.0305 C.3     1  UNL1        0.1718
     34 C          24.8573   74.9382   -3.2885 C.3     1  UNL1        0.1968
     35 C          23.7214   75.8137   -5.3501 C.3     1  UNL1        0.1723
     36 C          23.7127   73.9333   -3.1510 C.3     1  UNL1        0.2706
     37 C          22.6801   74.7168   -5.1475 C.3     1  UNL1        0.1830
     38 H          25.9728   77.2647   -3.5091 H       1  UNL1        0.2105
     39 H          26.0640   75.9114   -2.0716 H       1  UNL1        0.2106
     40 H          23.7250   77.6694   -6.0239 H       1  UNL1        0.2106
     41 O          22.7115   72.8504   -6.5678 O.co2   1  UNL1       -0.5466
     42 O          21.6207   74.7080   -7.3153 O.co2   1  UNL1       -0.5466
     43 C          22.2688   74.1274   -6.4574 C.2     1  UNL1        0.0799
@<TRIPOS>UNITY_ATOM_ATTR
2 1
charge -1
26 1
charge -1
41 1
charge -1
@<TRIPOS>BOND
     1     1     4    1
     2     1    24    1
     3     1     2    1
     4     1     3    2
     5    25    28    1
     6    25    24    1
     7    25    26    1
     8    25    27    2
     9     6    11    1
    10     6    12    1
    11    29    36    1
    12    29    37    1
    13     7     9    1
    14     7    13    1
    15     8    10    1
    16     8    14    1
    17     4     5    1
    18    28    36    1
    19    30    33    1
    20    30    38    1
    21    31    34    1
    22    31    39    1
    23    32    35    1
    24    32    40    1
    25    41    43   ar
    26    15    19    2
    27    42    43   ar
    28    16    22    2
    29    17    12    1
    30    17    19   ar
    31    17    20   ar
    32    18    19   ar
    33    18    22   ar
    34    18    23    1
    35     9    10    1
    36     9    11    1
    37    10    12    1
    38    11     5    1
    39    33    34    1
    40    33    35    1
    41    34    36    1
    42    35    37    1
    43    37    43    1
    44    20    21   ar
    45    21    22   ar
@<TRIPOS>MOLECULE
*****
 43 45 0 0 0
SMALL
GASTEIGER

@<TRIPOS>ATOM
      1 P          22.6907   71.7538   -3.0300 P.3     1  UNL1        0.2189
      2 O          23.6753   70.4696   -3.0168 O.co2   1  UNL1       -0.4371
      3 O          22.2659   72.2405   -1.6756 O.2     1  UNL1       -0.5170
      4 O          21.4935   71.3153   -4.0263 O.3     1  UNL1       -0.3112
      5 C          20.5640   70.3450   -3.5803 C.3     1  UNL1        0.1811
      6 O          18.8883   71.6811   -4.6686 O.3     1  UNL1       -0.3308
      7 O          16.9929   70.6775   -2.5730 O.3     1  UNL1       -0.3794
      8 O          16.3760   69.1239   -4.7275 O.3     1  UNL1       -0.3779
      9 C          18.0700   69.9972   -3.2175 C.3     1  UNL1        0.1713
     10 C          17.6882   69.6384   -4.6380 C.3     1  UNL1        0.1895
     11 C          19.1961   70.9989   -3.4336 C.3     1  UNL1        0.1764
     12 C          17.8441   70.9701   -5.3523 C.3     1  UNL1        0.2383
     13 H          16.2613   70.0575   -2.4243 H       1  UNL1        0.2105
     14 H          16.3286   68.2759   -4.2578 H       1  UNL1        0.2106
     15 O          16.0025   70.8478   -7.4901 O.2     1  UNL1       -0.2464
     16 O          19.3680   70.3641  -10.6019 O.2     1  UNL1       -0.2670
     17 N          18.2118   70.8126   -6.7311 N.ar    1  UNL1       -0.2551
     18 N          17.6804   70.6060   -9.0378 N.ar    1  UNL1       -0.2743
     19 C          17.2088   70.7627   -7.7278 C.ar    1  UNL1        0.3323
     20 C          19.5519   70.7112   -7.0842 C.ar    1  UNL1        0.0869
     21 C          19.9861   70.5623   -8.3373 C.ar    1  UNL1        0.0795
     22 C          19.0025   70.5000   -9.4382 C.ar    1  UNL1        0.2626
     23 H          17.0005   70.5665   -9.7489 H       1  UNL1        0.1734
     24 O          23.5148   72.8340   -3.9057 O.3     1  UNL1       -0.2703
     25 P          23.0232   74.1533   -4.7004 P.3     1  UNL1        0.2208
     26 O          24.3882   75.0032   -4.8863 O.co2   1  UNL1       -0.4371
     27 O          21.9148   74.9042   -4.0209 O.2     1  UNL1       -0.5170
     28 O          22.6653   73.6282   -6.1832 O.3     1  UNL1       -0.2858
     29 O          21.0555   74.3742   -7.7520 O.3     1  UNL1       -0.3226
     30 O          21.4514   77.6861   -5.3143 O.3     1  UNL1       -0.3794
     31 O          23.8050   76.1650   -6.1396 O.3     1  UNL1       -0.3775
     32 O          19.1110   75.9771   -5.0852 O.3     1  UNL1       -0.3792
     33 C          21.4368   76.2937   -5.6287 C.3     1  UNL1        0.1718
     34 C          22.5015   75.9962   -6.6848 C.3     1  UNL1        0.1968
     35 C          20.0457   75.9439   -6.1621 C.3     1  UNL1        0.1723
     36 C          22.3638   74.5678   -7.2133 C.3     1  UNL1        0.2706
     37 C          20.0222   74.5513   -6.7856 C.3     1  UNL1        0.1830
     38 H          22.3259   77.9317   -4.9734 H       1  UNL1        0.2105
     39 H          23.8993   77.0692   -5.8021 H       1  UNL1        0.2106
     40 H          19.1163   76.8582   -4.6795 H       1  UNL1        0.2106
     41 O          17.7289   74.0591   -6.7748 O.co2   1  UNL1       -0.5466
     42 O          18.7026   74.4344   -8.8021 O.co2   1  UNL1       -0.5466
     43 C          18.7765   74.3493   -7.5855 C.2     1  UNL1        0.0799
@<TRIPOS>UNITY_ATOM_ATTR
2 1
charge -1
26 1
charge -1
41 1
charge -1
@<TRIPOS>BOND
     1     1     4    1
     2     1    24    1
     3     1     2    1
     4     1     3    2
     5    25    28    1
     6    25    24    1
     7    25    26    1
     8    25    27    2
     9     6    11    1
    10     6    12    1
    11    29    36    1
    12    29    37    1
    13     7     9    1
    14     7    13    1
    15     8    10    1
    16     8    14    1
    17     4     5    1
    18    28    36    1
    19    30    33    1
    20    30    38    1
    21    31    34    1
    22    31    39    1
    23    32    35    1
    24    32    40    1
    25    41    43   ar
    26    15    19    2
    27    42    43   ar
    28    16    22    2
    29    17    12    1
    30    17    19   ar
    31    17    20   ar
    32    18    19   ar
    33    18    22   ar
    34    18    23    1
    35     9    10    1
    36     9    11    1
    37    10    12    1
    38    11     5    1
    39    33    34    1
    40    33    35    1
    41    34    36    1
    42    35    37    1
    43    37    43    1
    44    20    21   ar
    45    21    22   ar
@<TRIPOS>MOLECULE
*****
 43 45 0 0 0
SMALL
GASTEIGER

@<TRIPOS>ATOM
      1 P          22.1903   71.3292   -1.5173 P.3     1  UNL1        0.2189
      2 O          23.3990   70.6902   -2.3831 O.co2   1  UNL1       -0.4371
      3 O          21.4222   70.3480   -0.6812 O.2     1  UNL1       -0.5170
      4 O          21.3240   72.1524   -2.6081 O.3     1  UNL1       -0.3112
      5 C          20.5994   71.4260   -3.5837 C.3     1  UNL1        0.1811
      6 O          18.6514   72.2242   -4.7439 O.3     1  UNL1       -0.3308
      7 O          17.0574   71.0475   -2.4931 O.3     1  UNL1       -0.3794
      8 O          16.7899   69.1736   -4.4560 O.3     1  UNL1       -0.3779
      9 C          18.2548   70.5637   -3.1018 C.3     1  UNL1        0.1713
     10 C          17.9505   69.9782   -4.4645 C.3     1  UNL1        0.1895
     11 C          19.1198   71.7653   -3.4573 C.3     1  UNL1        0.1764
     12 C          17.7905   71.2265   -5.3155 C.3     1  UNL1        0.2383
     13 H          16.4884   70.2977   -2.2571 H       1  UNL1        0.2105
     14 H          16.9424   68.3920   -3.9011 H       1  UNL1        0.2106
     15 O          16.0254   70.3595   -7.3426 O.2     1  UNL1       -0.2464
     16 O          19.3572   70.4290  -10.5267 O.2     1  UNL1       -0.2670
     17 N          18.1702   71.0099   -6.6829 N.ar    1  UNL1       -0.2551
     18 N          17.6867   70.3940   -8.9263 N.ar    1  UNL1       -0.2743
     19 C          17.2064   70.5737   -7.6225 C.ar    1  UNL1        0.3323
     20 C          19.4830   71.2306   -7.0814 C.ar    1  UNL1        0.0869
     21 C          19.9259   71.0551   -8.3279 C.ar    1  UNL1        0.0795
     22 C          18.9828   70.5998   -9.3705 C.ar    1  UNL1        0.2626
     23 H          17.0345   70.0887   -9.5978 H       1  UNL1        0.1734
     24 O          22.9243   72.4995   -0.6780 O.3     1  UNL1       -0.2703
     25 P          22.3544   73.8817   -0.0627 P.3     1  UNL1        0.2208
     26 O          20.7511   73.6586   -0.0749 O.co2   1  UNL1       -0.4371
     27 O          22.8129   75.1138   -0.7877 O.2     1  UNL1       -0.5170
     28 O          22.7604   73.8330    1.4978 O.3     1  UNL1       -0.2858
     29 O          21.4481   74.9813    3.1005 O.3     1  UNL1       -0.3226
     30 O          24.9613   74.3565    5.1826 O.3     1  UNL1       -0.3794
     31 O          25.0270   75.1816    2.3809 O.3     1  UNL1       -0.3775
     32 O          22.6173   72.7354    5.7559 O.3     1  UNL1       -0.3792
     33 C          23.9377   74.0563    4.2338 C.3     1  UNL1        0.1718
     34 C          23.8595   75.1747    3.1943 C.3     1  UNL1        0.1968
     35 C          22.6122   73.9384    4.9895 C.3     1  UNL1        0.1723
     36 C          22.6305   75.0054    2.3000 C.3     1  UNL1        0.2706
     37 C          21.4257   73.9009    4.0307 C.3     1  UNL1        0.1830
     38 H          25.8131   74.4362    4.7252 H       1  UNL1        0.2105
     39 H          25.8107   75.2885    2.9419 H       1  UNL1        0.2106
     40 H          23.3679   72.7465    6.3702 H       1  UNL1        0.2106
     41 O          20.3733   74.6922    5.9717 O.co2   1  UNL1       -0.5466
     42 O          19.0347   73.8220    4.3439 O.co2   1  UNL1       -0.5466
     43 C          20.1429   74.1172    4.7654 C.2     1  UNL1        0.0799
@<TRIPOS>UNITY_ATOM_ATTR
2 1
charge -1
26 1
charge -1
41 1
charge -1
@<TRIPOS>BOND
     1     1     4    1
     2     1    24    1
     3     1     2    1
     4     1     3    2
     5    25    28    1
     6    25    24    1
     7    25    26    1
     8    25    27    2
     9     6    11    1
    10     6    12    1
    11    29    36    1
    12    29    37    1
    13     7     9    1
    14     7    13    1
    15     8    10    1
    16     8    14    1
    17     4     5    1
    18    28    36    1
    19    30    33    1
    20    30    38    1
    21    31    34    1
    22    31    39    1
    23    32    35    1
    24    32    40    1
    25    41    43   ar
    26    15    19    2
    27    42    43   ar
    28    16    22    2
    29    17    12    1
    30    17    19   ar
    31    17    20   ar
    32    18    19   ar
    33    18    22   ar
    34    18    23    1
    35     9    10    1
    36     9    11    1
    37    10    12    1
    38    11     5    1
    39    33    34    1
    40    33    35    1
    41    34    36    1
    42    35    37    1
    43    37    43    1
    44    20    21   ar
    45    21    22   ar
@<TRIPOS>MOLECULE
*****
 43 45 0 0 0
SMALL
GASTEIGER

@<TRIPOS>ATOM
      1 P          22.1360   73.5094   -5.3769 P.3     1  UNL1        0.2189
      2 O          22.3003   75.0140   -5.9498 O.co2   1  UNL1       -0.4371
      3 O          23.4086   72.8680   -4.9069 O.2     1  UNL1       -0.5170
      4 O          21.3493   72.7286   -6.5557 O.3     1  UNL1       -0.3112
      5 C          20.6658   73.4916   -7.5330 C.3     1  UNL1        0.1811
      6 O          19.8952   71.2484   -7.9229 O.3     1  UNL1       -0.3308
      7 O          18.3359   72.3819  -10.2197 O.3     1  UNL1       -0.3794
      8 O          16.4354   72.1172   -8.2822 O.3     1  UNL1       -0.3779
      9 C          18.6173   72.9609   -8.9453 C.3     1  UNL1        0.1713
     10 C          17.7744   72.3033   -7.8732 C.3     1  UNL1        0.1895
     11 C          20.0258   72.5466   -8.5418 C.3     1  UNL1        0.1764
     12 C          18.5075   70.9905   -7.6566 C.3     1  UNL1        0.2383
     13 H          17.4409   72.6326  -10.4986 H       1  UNL1        0.2105
     14 H          16.0122   72.9817   -8.4065 H       1  UNL1        0.2106
     15 O          16.2159   69.6743   -6.6601 O.2     1  UNL1       -0.2464
     16 O          18.1011   69.1625   -2.4854 O.2     1  UNL1       -0.2670
     17 N          18.3727   70.5028   -6.3131 N.ar    1  UNL1       -0.2551
     18 N          17.1566   69.4216   -4.5815 N.ar    1  UNL1       -0.2743
     19 C          17.1795   69.8558   -5.9135 C.ar    1  UNL1        0.3323
     20 C          19.4147   70.6656   -5.4083 C.ar    1  UNL1        0.0869
     21 C          19.3783   70.2463   -4.1420 C.ar    1  UNL1        0.0795
     22 C          18.1674   69.5612   -3.6443 C.ar    1  UNL1        0.2626
     23 H          16.3355   68.9701   -4.2796 H       1  UNL1        0.1734
     24 O          21.0048   73.6776   -4.2346 O.3     1  UNL1       -0.2703
     25 P          21.0894   74.2837   -2.7382 P.3     1  UNL1        0.2208
     26 O          19.5792   74.7966   -2.4610 O.co2   1  UNL1       -0.4371
     27 O          22.1431   75.3380   -2.5594 O.2     1  UNL1       -0.5170
     28 O          21.2632   72.9947   -1.7838 O.3     1  UNL1       -0.2858
     29 O          22.9258   73.4363   -0.1560 O.3     1  UNL1       -0.3226
     30 O          21.9223   69.5229    0.7076 O.3     1  UNL1       -0.3794
     31 O          22.2203   70.3983   -2.0636 O.3     1  UNL1       -0.3775
     32 O          20.9699   71.6821    2.4051 O.3     1  UNL1       -0.3792
     33 C          21.6925   70.8586    0.2592 C.3     1  UNL1        0.1718
     34 C          22.6059   71.1642   -0.9281 C.3     1  UNL1        0.1968
     35 C          21.9957   71.8064    1.4218 C.3     1  UNL1        0.1723
     36 C          22.5557   72.6495   -1.2889 C.3     1  UNL1        0.2706
     37 C          22.0519   73.2586    0.9565 C.3     1  UNL1        0.1830
     38 H          21.7360   68.9026   -0.0148 H       1  UNL1        0.2105
     39 H          22.2496   69.4547   -1.8417 H       1  UNL1        0.2106
     40 H          20.9236   70.7623    2.7095 H       1  UNL1        0.2106
     41 O          21.9557   75.2764    2.1484 O.co2   1  UNL1       -0.5466
     42 O          23.6621   73.8507    2.6530 O.co2   1  UNL1       -0.5466
     43 C          22.6636   74.1286    2.0060 C.2     1  UNL1        0.0799
@<TRIPOS>UNITY_ATOM_ATTR
2 1
charge -1
26 1
charge -1
41 1
charge -1
@<TRIPOS>BOND
     1     1     4    1
     2     1    24    1
     3     1     2    1
     4     1     3    2
     5    25    28    1
     6    25    24    1
     7    25    26    1
     8    25    27    2
     9     6    11    1
    10     6    12    1
    11    29    36    1
    12    29    37    1
    13     7     9    1
    14     7    13    1
    15     8    10    1
    16     8    14    1
    17     4     5    1
    18    28    36    1
    19    30    33    1
    20    30    38    1
    21    31    34    1
    22    31    39    1
    23    32    35    1
    24    32    40    1
    25    41    43   ar
    26    15    19    2
    27    42    43   ar
    28    16    22    2
    29    17    12    1
    30    17    19   ar
    31    17    20   ar
    32    18    19   ar
    33    18    22   ar
    34    18    23    1
    35     9    10    1
    36     9    11    1
    37    10    12    1
    38    11     5    1
    39    33    34    1
    40    33    35    1
    41    34    36    1
    42    35    37    1
    43    37    43    1
    44    20    21   ar
    45    21    22   ar
@<TRIPOS>MOLECULE
*****
 43 45 0 0 0
SMALL
GASTEIGER

@<TRIPOS>ATOM
      1 P          20.2471   70.1007   -2.1944 P.3     1  UNL1        0.2189
      2 O          21.5393   69.7594   -3.1070 O.co2   1  UNL1       -0.4371
      3 O          19.1083   69.1318   -2.3211 O.2     1  UNL1       -0.5170
      4 O          19.9057   71.6385   -2.5639 O.3     1  UNL1       -0.3112
      5 C          20.1361   72.0828   -3.8883 C.3     1  UNL1        0.1811
      6 O          19.2774   73.5260   -5.6080 O.3     1  UNL1       -0.3308
      7 O          17.0310   74.1340   -3.7172 O.3     1  UNL1       -0.3794
      8 O          15.9021   72.3314   -5.4238 O.3     1  UNL1       -0.3779
      9 C          17.7292   72.9062   -3.9259 C.3     1  UNL1        0.1713
     10 C          17.3004   72.2752   -5.2337 C.3     1  UNL1        0.1895
     11 C          19.1907   73.2369   -4.1959 C.3     1  UNL1        0.1764
     12 C          18.0627   73.1076   -6.2505 C.3     1  UNL1        0.2383
     13 H          16.0946   73.9482   -3.5428 H       1  UNL1        0.2105
     14 H          15.4623   71.7856   -4.7525 H       1  UNL1        0.2106
     15 O          18.3342   70.2979   -6.3400 O.2     1  UNL1       -0.2464
     16 O          19.3300   70.3548  -10.8399 O.2     1  UNL1       -0.2670
     17 N          18.3923   72.3623   -7.4323 N.ar    1  UNL1       -0.2551
     18 N          18.8309   70.3290   -8.5809 N.ar    1  UNL1       -0.2743
     19 C          18.5047   70.9533   -7.3698 C.ar    1  UNL1        0.3323
     20 C          18.5986   73.0259   -8.6357 C.ar    1  UNL1        0.0869
     21 C          18.9088   72.4172   -9.7820 C.ar    1  UNL1        0.0795
     22 C          19.0461   70.9461   -9.8026 C.ar    1  UNL1        0.2626
     23 H          18.9167   69.3484   -8.5619 H       1  UNL1        0.1734
     24 O          20.8723   70.2143   -0.7081 O.3     1  UNL1       -0.2703
     25 P          22.3981   70.4090   -0.2105 P.3     1  UNL1        0.2208
     26 O          23.1591   70.9234   -1.5433 O.co2   1  UNL1       -0.4371
     27 O          23.0033   69.1849    0.4136 O.2     1  UNL1       -0.5170
     28 O          22.3519   71.6999    0.7559 O.3     1  UNL1       -0.2858
     29 O          21.0142   72.3117    2.6120 O.3     1  UNL1       -0.3226
     30 O          21.4352   75.9241    0.6522 O.3     1  UNL1       -0.3794
     31 O          20.9359   73.4715   -0.8543 O.3     1  UNL1       -0.3775
     32 O          22.9549   75.3913    3.0724 O.3     1  UNL1       -0.3792
     33 C          21.8307   74.6225    1.0850 C.3     1  UNL1        0.1718
     34 C          20.8374   73.5852    0.5607 C.3     1  UNL1        0.1968
     35 C          21.8473   74.6176    2.6152 C.3     1  UNL1        0.1723
     36 C          21.0944   72.2150    1.1895 C.3     1  UNL1        0.2706
     37 C          21.9811   73.2010    3.1664 C.3     1  UNL1        0.1830
     38 H          21.4175   75.9512   -0.3174 H       1  UNL1        0.2105
     39 H          20.7743   74.3374   -1.2598 H       1  UNL1        0.2106
     40 H          22.8819   76.2953    2.7285 H       1  UNL1        0.2106
     41 O          22.3755   72.1907    5.2461 O.co2   1  UNL1       -0.5466
     42 O          20.8868   73.9171    5.1940 O.co2   1  UNL1       -0.5466
     43 C          21.6685   73.1683    4.6270 C.2     1  UNL1        0.0799
@<TRIPOS>UNITY_ATOM_ATTR
2 1
charge -1
26 1
charge -1
41 1
charge -1
@<TRIPOS>BOND
     1     1     4    1
     2     1    24    1
     3     1     2    1
     4     1     3    2
     5    25    28    1
     6    25    24    1
     7    25    26    1
     8    25    27    2
     9     6    11    1
    10     6    12    1
    11    29    36    1
    12    29    37    1
    13     7     9    1
    14     7    13    1
    15     8    10    1
    16     8    14    1
    17     4     5    1
    18    28    36    1
    19    30    33    1
    20    30    38    1
    21    31    34    1
    22    31    39    1
    23    32    35    1
    24    32    40    1
    25    41    43   ar
    26    15    19    2
    27    42    43   ar
    28    16    22    2
    29    17    12    1
    30    17    19   ar
    31    17    20   ar
    32    18    19   ar
    33    18    22   ar
    34    18    23    1
    35     9    10    1
    36     9    11    1
    37    10    12    1
    38    11     5    1
    39    33    34    1
    40    33    35    1
    41    34    36    1
    42    35    37    1
    43    37    43    1
    44    20    21   ar
    45    21    22   ar
@<TRIPOS>MOLECULE
*****
 43 45 0 0 0
SMALL
GASTEIGER

@<TRIPOS>ATOM
      1 P          21.8642   70.7130   -2.8500 P.3     1  UNL1        0.2189
      2 O          23.3648   70.8619   -3.4373 O.co2   1  UNL1       -0.4371
      3 O          21.2741   69.3378   -2.9605 O.2     1  UNL1       -0.5170
      4 O          21.0392   71.8930   -3.5883 O.3     1  UNL1       -0.3112
      5 C          20.1753   71.5482   -4.6557 C.3     1  UNL1        0.1811
      6 O          17.9110   72.3535   -4.7013 O.3     1  UNL1       -0.3308
      7 O          17.1413   69.7023   -3.5306 O.3     1  UNL1       -0.3794
      8 O          16.5101   69.3960   -6.1658 O.3     1  UNL1       -0.3779
      9 C          18.1579   70.0076   -4.4856 C.3     1  UNL1        0.1713
     10 C          17.5376   70.3063   -5.8340 C.3     1  UNL1        0.1895
     11 C          18.7667   71.3517   -4.1101 C.3     1  UNL1        0.1764
     12 C          17.0235   71.7224   -5.6379 C.3     1  UNL1        0.2383
     13 H          16.7375   68.8476   -3.7498 H       1  UNL1        0.2105
     14 H          16.8881   68.5094   -6.2803 H       1  UNL1        0.2106
     15 O          18.6697   71.1650   -7.8641 O.2     1  UNL1       -0.2464
     16 O          16.9219   74.6871  -10.2691 O.2     1  UNL1       -0.2670
     17 N          17.0191   72.4777   -6.8587 N.ar    1  UNL1       -0.2551
     18 N          17.7984   72.9204   -9.0594 N.ar    1  UNL1       -0.2743
     19 C          17.8857   72.1145   -7.9166 C.ar    1  UNL1        0.3323
     20 C          16.1627   73.5629   -6.9998 C.ar    1  UNL1        0.0869
     21 C          16.0907   74.3215   -8.0953 C.ar    1  UNL1        0.0795
     22 C          16.9633   74.0100   -9.2463 C.ar    1  UNL1        0.2626
     23 H          18.3936   72.6883   -9.8086 H       1  UNL1        0.1734
     24 O          22.0104   71.2635   -1.3372 O.3     1  UNL1       -0.2703
     25 P          22.4278   70.5099    0.0308 P.3     1  UNL1        0.2208
     26 O          23.8689   69.8653   -0.3269 O.co2   1  UNL1       -0.4371
     27 O          21.4124   69.5196    0.5228 O.2     1  UNL1       -0.5170
     28 O          22.7601   71.6996    1.0684 O.3     1  UNL1       -0.2858
     29 O          21.3752   72.8696    2.5923 O.3     1  UNL1       -0.3226
     30 O          24.0260   75.8180    1.4313 O.3     1  UNL1       -0.3794
     31 O          22.9162   73.9659   -0.5365 O.3     1  UNL1       -0.3775
     32 O          24.2925   74.5605    4.0388 O.3     1  UNL1       -0.3792
     33 C          23.6070   74.4864    1.7302 C.3     1  UNL1        0.1718
     34 C          22.4562   74.0920    0.8040 C.3     1  UNL1        0.1968
     35 C          23.1510   74.4507    3.1906 C.3     1  UNL1        0.1723
     36 C          21.8304   72.7673    1.2426 C.3     1  UNL1        0.2706
     37 C          22.4252   73.1484    3.5158 C.3     1  UNL1        0.1830
     38 H          24.3202   75.8650    0.5080 H       1  UNL1        0.2105
     39 H          23.3148   74.8028   -0.8213 H       1  UNL1        0.2106
     40 H          24.7635   75.3852    3.8418 H       1  UNL1        0.2106
     41 O          22.5449   72.9946    5.8533 O.co2   1  UNL1       -0.5466
     42 O          20.5233   73.5372    4.9488 O.co2   1  UNL1       -0.5466
     43 C          21.7050   73.2541    4.8206 C.2     1  UNL1        0.0799
@<TRIPOS>UNITY_ATOM_ATTR
2 1
charge -1
26 1
charge -1
41 1
charge -1
@<TRIPOS>BOND
     1     1     4    1
     2     1    24    1
     3     1     2    1
     4     1     3    2
     5    25    28    1
     6    25    24    1
     7    25    26    1
     8    25    27    2
     9     6    11    1
    10     6    12    1
    11    29    36    1
    12    29    37    1
    13     7     9    1
    14     7    13    1
    15     8    10    1
    16     8    14    1
    17     4     5    1
    18    28    36    1
    19    30    33    1
    20    30    38    1
    21    31    34    1
    22    31    39    1
    23    32    35    1
    24    32    40    1
    25    41    43   ar
    26    15    19    2
    27    42    43   ar
    28    16    22    2
    29    17    12    1
    30    17    19   ar
    31    17    20   ar
    32    18    19   ar
    33    18    22   ar
    34    18    23    1
    35     9    10    1
    36     9    11    1
    37    10    12    1
    38    11     5    1
    39    33    34    1
    40    33    35    1
    41    34    36    1
    42    35    37    1
    43    37    43    1
    44    20    21   ar
    45    21    22   ar
@<TRIPOS>MOLECULE
*****
 43 45 0 0 0
SMALL
GASTEIGER

@<TRIPOS>ATOM
      1 P          21.4588   72.6660   -4.9383 P.3     1  UNL1        0.2189
      2 O          20.7169   74.0859   -4.7094 O.co2   1  UNL1       -0.4371
      3 O          22.9181   72.7607   -5.2747 O.2     1  UNL1       -0.5170
      4 O          20.5328   71.9157   -6.0326 O.3     1  UNL1       -0.3112
      5 C          20.7551   72.1846   -7.4047 C.3     1  UNL1        0.1811
      6 O          18.4584   71.4984   -7.5848 O.3     1  UNL1       -0.3308
      7 O          19.0521   70.9168  -10.4659 O.3     1  UNL1       -0.3794
      8 O          17.7760   73.3232  -10.5945 O.3     1  UNL1       -0.3779
      9 C          19.5499   71.9654   -9.6345 C.3     1  UNL1        0.1713
     10 C          18.4771   73.0098   -9.4093 C.3     1  UNL1        0.1895
     11 C          19.7449   71.4017   -8.2336 C.3     1  UNL1        0.1764
     12 C          17.5967   72.3383   -8.3692 C.3     1  UNL1        0.2383
     13 H          18.9195   71.2530  -11.3665 H       1  UNL1        0.2105
     14 H          18.3795   73.7487  -11.2243 H       1  UNL1        0.2106
     15 O          15.1051   73.5542   -8.9076 O.2     1  UNL1       -0.2464
     16 O          15.2208   75.9552   -4.9750 O.2     1  UNL1       -0.2670
     17 N          16.9526   73.2848   -7.5031 N.ar    1  UNL1       -0.2551
     18 N          15.1656   74.7497   -6.9489 N.ar    1  UNL1       -0.2743
     19 C          15.7016   73.8369   -7.8668 C.ar    1  UNL1        0.3323
     20 C          17.5580   73.6558   -6.3086 C.ar    1  UNL1        0.0869
     21 C          17.0348   74.5271   -5.4438 C.ar    1  UNL1        0.0795
     22 C          15.7303   75.1504   -5.7489 C.ar    1  UNL1        0.2626
     23 H          14.2961   75.1489   -7.1814 H       1  UNL1        0.1734
     24 O          21.1330   71.8623   -3.5742 O.3     1  UNL1       -0.2703
     25 P          22.1127   71.1711   -2.4897 P.3     1  UNL1        0.2208
     26 O          23.4707   70.9104   -3.3313 O.co2   1  UNL1       -0.4371
     27 O          21.5429   69.9438   -1.8393 O.2     1  UNL1       -0.5170
     28 O          22.4906   72.3580   -1.4645 O.3     1  UNL1       -0.2858
     29 O          21.3252   72.7594    0.5579 O.3     1  UNL1       -0.3226
     30 O          23.0380   76.4475   -0.1718 O.3     1  UNL1       -0.3794
     31 O          21.8416   74.9132   -2.3510 O.3     1  UNL1       -0.3775
     32 O          24.1486   74.7011    1.8697 O.3     1  UNL1       -0.3792
     33 C          22.9520   75.0227   -0.1967 C.3     1  UNL1        0.1718
     34 C          21.7032   74.5988   -0.9701 C.3     1  UNL1        0.1968
     35 C          22.8758   74.5283    1.2496 C.3     1  UNL1        0.1723
     36 C          21.4525   73.0973   -0.8238 C.3     1  UNL1        0.2706
     37 C          22.4983   73.0511    1.3141 C.3     1  UNL1        0.1830
     38 H          23.0875   76.7845   -1.0802 H       1  UNL1        0.2105
     39 H          22.0012   75.8644   -2.4512 H       1  UNL1        0.2106
     40 H          24.4006   75.6371    1.8352 H       1  UNL1        0.2106
     41 O          21.0584   71.8041    2.6828 O.co2   1  UNL1       -0.5466
     42 O          22.6527   73.0602    3.7219 O.co2   1  UNL1       -0.5466
     43 C          22.1070   72.6638    2.7030 C.2     1  UNL1        0.0799
@<TRIPOS>UNITY_ATOM_ATTR
2 1
charge -1
26 1
charge -1
41 1
charge -1
@<TRIPOS>BOND
     1     1     4    1
     2     1    24    1
     3     1     2    1
     4     1     3    2
     5    25    28    1
     6    25    24    1
     7    25    26    1
     8    25    27    2
     9     6    11    1
    10     6    12    1
    11    29    36    1
    12    29    37    1
    13     7     9    1
    14     7    13    1
    15     8    10    1
    16     8    14    1
    17     4     5    1
    18    28    36    1
    19    30    33    1
    20    30    38    1
    21    31    34    1
    22    31    39    1
    23    32    35    1
    24    32    40    1
    25    41    43   ar
    26    15    19    2
    27    42    43   ar
    28    16    22    2
    29    17    12    1
    30    17    19   ar
    31    17    20   ar
    32    18    19   ar
    33    18    22   ar
    34    18    23    1
    35     9    10    1
    36     9    11    1
    37    10    12    1
    38    11     5    1
    39    33    34    1
    40    33    35    1
    41    34    36    1
    42    35    37    1
    43    37    43    1
    44    20    21   ar
    45    21    22   ar
@<TRIPOS>MOLECULE
*****
 43 45 0 0 0
SMALL
GASTEIGER

@<TRIPOS>ATOM
      1 P          19.4694   69.4115   -3.6331 P.3     1  UNL1        0.2189
      2 O          19.6875   69.9020   -5.1598 O.co2   1  UNL1       -0.4371
      3 O          18.8968   68.0322   -3.4865 O.2     1  UNL1       -0.5170
      4 O          18.6081   70.6049   -2.9610 O.3     1  UNL1       -0.3112
      5 C          17.3670   70.9551   -3.5455 C.3     1  UNL1        0.1811
      6 O          18.2005   72.7481   -4.9123 O.3     1  UNL1       -0.3308
      7 O          15.9141   74.3719   -3.8505 O.3     1  UNL1       -0.3794
      8 O          15.0230   73.6309   -6.3189 O.3     1  UNL1       -0.3779
      9 C          15.9625   72.9817   -4.1723 C.3     1  UNL1        0.1713
     10 C          15.9574   72.7908   -5.6742 C.3     1  UNL1        0.1895
     11 C          17.3401   72.4585   -3.7893 C.3     1  UNL1        0.1764
     12 C          17.3937   73.1250   -6.0394 C.3     1  UNL1        0.2383
     13 H          15.0430   74.7286   -4.0863 H       1  UNL1        0.2105
     14 H          14.1242   73.3779   -6.0540 H       1  UNL1        0.2106
     15 O          16.3330   70.6525   -6.8984 O.2     1  UNL1       -0.2464
     16 O          19.2049   70.4634  -10.4984 O.2     1  UNL1       -0.2670
     17 N          17.8456   72.4077   -7.1979 N.ar    1  UNL1       -0.2551
     18 N          17.7651   70.5602   -8.6900 N.ar    1  UNL1       -0.2743
     19 C          17.2458   71.1733   -7.5422 C.ar    1  UNL1        0.3323
     20 C          18.8700   72.9276   -7.9797 C.ar    1  UNL1        0.0869
     21 C          19.3543   72.3317   -9.0711 C.ar    1  UNL1        0.0795
     22 C          18.7831   71.0379   -9.4993 C.ar    1  UNL1        0.2626
     23 H          17.3647   69.6987   -8.9486 H       1  UNL1        0.1734
     24 O          20.9337   69.6060   -2.9768 O.3     1  UNL1       -0.2703
     25 P          21.8971   70.9017   -2.8961 P.3     1  UNL1        0.2208
     26 O          21.1730   71.9630   -3.8809 O.co2   1  UNL1       -0.4371
     27 O          23.3330   70.6236   -3.2351 O.2     1  UNL1       -0.5170
     28 O          21.6619   71.4950   -1.4145 O.3     1  UNL1       -0.2858
     29 O          23.3394   72.8235   -0.3993 O.3     1  UNL1       -0.3226
     30 O          21.0230   71.7640    2.8534 O.3     1  UNL1       -0.3794
     31 O          21.6652   69.7986    0.7896 O.3     1  UNL1       -0.3775
     32 O          20.8423   74.4452    1.7447 O.3     1  UNL1       -0.3792
     33 C          21.2802   72.0900    1.4875 C.3     1  UNL1        0.1718
     34 C          22.2680   71.0829    0.8982 C.3     1  UNL1        0.1968
     35 C          21.8683   73.5021    1.4410 C.3     1  UNL1        0.1723
     36 C          22.7437   71.5284   -0.4853 C.3     1  UNL1        0.2706
     37 C          22.4344   73.8246    0.0612 C.3     1  UNL1        0.1830
     38 H          20.6487   70.8705    2.9078 H       1  UNL1        0.2105
     39 H          21.3608   69.5098    1.6639 H       1  UNL1        0.2106
     40 H          20.4734   74.2510    2.6205 H       1  UNL1        0.2106
     41 O          22.5188   76.1675    0.1318 O.co2   1  UNL1       -0.5466
     42 O          24.5089   75.0546    0.1327 O.co2   1  UNL1       -0.5466
     43 C          23.2872   75.0504    0.1110 C.2     1  UNL1        0.0799
@<TRIPOS>UNITY_ATOM_ATTR
2 1
charge -1
26 1
charge -1
41 1
charge -1
@<TRIPOS>BOND
     1     1     4    1
     2     1    24    1
     3     1     2    1
     4     1     3    2
     5    25    28    1
     6    25    24    1
     7    25    26    1
     8    25    27    2
     9     6    11    1
    10     6    12    1
    11    29    36    1
    12    29    37    1
    13     7     9    1
    14     7    13    1
    15     8    10    1
    16     8    14    1
    17     4     5    1
    18    28    36    1
    19    30    33    1
    20    30    38    1
    21    31    34    1
    22    31    39    1
    23    32    35    1
    24    32    40    1
    25    41    43   ar
    26    15    19    2
    27    42    43   ar
    28    16    22    2
    29    17    12    1
    30    17    19   ar
    31    17    20   ar
    32    18    19   ar
    33    18    22   ar
    34    18    23    1
    35     9    10    1
    36     9    11    1
    37    10    12    1
    38    11     5    1
    39    33    34    1
    40    33    35    1
    41    34    36    1
    42    35    37    1
    43    37    43    1
    44    20    21   ar
    45    21    22   ar
@<TRIPOS>MOLECULE
*****
 43 45 0 0 0
SMALL
GASTEIGER

@<TRIPOS>ATOM
      1 P          21.9916   75.3110   -5.4442 P.3     1  UNL1        0.2189
      2 O          23.6024   75.2802   -5.5967 O.co2   1  UNL1       -0.4371
      3 O          21.4270   76.6092   -4.9465 O.2     1  UNL1       -0.5170
      4 O          21.6618   74.0093   -4.5415 O.3     1  UNL1       -0.3112
      5 C          21.9914   74.0401   -3.1649 C.3     1  UNL1        0.1811
      6 O          23.3371   72.9963   -1.4687 O.3     1  UNL1       -0.3308
      7 O          23.5394   70.6557   -3.3321 O.3     1  UNL1       -0.3794
      8 O          21.6370   69.8409   -1.5564 O.3     1  UNL1       -0.3779
      9 C          22.4391   71.5364   -3.1037 C.3     1  UNL1        0.1713
     10 C          21.7890   71.2284   -1.7715 C.3     1  UNL1        0.1895
     11 C          22.9965   72.9340   -2.8706 C.3     1  UNL1        0.1764
     12 C          22.7576   71.8693   -0.7922 C.3     1  UNL1        0.2383
     13 H          23.2080   69.7563   -3.4836 H       1  UNL1        0.2105
     14 H          21.0109   69.4800   -2.2043 H       1  UNL1        0.2106
     15 O          22.3193   70.2722    1.4955 O.2     1  UNL1       -0.2464
     16 O          20.2491   73.7277    3.7356 O.2     1  UNL1       -0.2670
     17 N          22.1065   72.3263    0.4028 N.ar    1  UNL1       -0.2551
     18 N          21.2877   71.9945    2.6086 N.ar    1  UNL1       -0.2743
     19 C          21.9361   71.4436    1.4955 C.ar    1  UNL1        0.3323
     20 C          21.6464   73.6350    0.4849 C.ar    1  UNL1        0.0869
     21 C          21.0303   74.1457    1.5527 C.ar    1  UNL1        0.0795
     22 C          20.8119   73.2894    2.7369 C.ar    1  UNL1        0.2626
     23 H          21.1558   71.3984    3.3811 H       1  UNL1        0.1734
     24 O          21.4795   74.8733   -6.9136 O.3     1  UNL1       -0.2703
     25 P          21.4277   73.4260   -7.6321 P.3     1  UNL1        0.2208
     26 O          22.6072   72.6023   -6.8901 O.co2   1  UNL1       -0.4371
     27 O          21.5544   73.4759   -9.1272 O.2     1  UNL1       -0.5170
     28 O          20.0626   72.7525   -7.0980 O.3     1  UNL1       -0.2858
     29 O          19.5384   70.5549   -6.3876 O.3     1  UNL1       -0.3226
     30 O          16.0512   71.6748   -8.2989 O.3     1  UNL1       -0.3794
     31 O          18.6514   72.3312   -9.4575 O.3     1  UNL1       -0.3775
     32 O          16.1689   71.6148   -5.3949 O.3     1  UNL1       -0.3792
     33 C          17.2415   71.8749   -7.5366 C.3     1  UNL1        0.1718
     34 C          18.4554   71.4458   -8.3610 C.3     1  UNL1        0.1968
     35 C          17.1362   71.0301   -6.2649 C.3     1  UNL1        0.1723
     36 C          19.7211   71.4280   -7.5028 C.3     1  UNL1        0.2706
     37 C          18.4723   70.9589   -5.5312 C.3     1  UNL1        0.1830
     38 H          16.0954   72.2019   -9.1122 H       1  UNL1        0.2105
     39 H          17.8520   72.3476  -10.0062 H       1  UNL1        0.2106
     40 H          15.3138   71.6660   -5.8499 H       1  UNL1        0.2106
     41 O          19.7092   69.5901   -4.0828 O.co2   1  UNL1       -0.5466
     42 O          17.4426   69.3432   -4.0647 O.co2   1  UNL1       -0.5466
     43 C          18.4507   69.8848   -4.4928 C.2     1  UNL1        0.0799
@<TRIPOS>UNITY_ATOM_ATTR
2 1
charge -1
26 1
charge -1
41 1
charge -1
@<TRIPOS>BOND
     1     1     4    1
     2     1    24    1
     3     1     2    1
     4     1     3    2
     5    25    28    1
     6    25    24    1
     7    25    26    1
     8    25    27    2
     9     6    11    1
    10     6    12    1
    11    29    36    1
    12    29    37    1
    13     7     9    1
    14     7    13    1
    15     8    10    1
    16     8    14    1
    17     4     5    1
    18    28    36    1
    19    30    33    1
    20    30    38    1
    21    31    34    1
    22    31    39    1
    23    32    35    1
    24    32    40    1
    25    41    43   ar
    26    15    19    2
    27    42    43   ar
    28    16    22    2
    29    17    12    1
    30    17    19   ar
    31    17    20   ar
    32    18    19   ar
    33    18    22   ar
    34    18    23    1
    35     9    10    1
    36     9    11    1
    37    10    12    1
    38    11     5    1
    39    33    34    1
    40    33    35    1
    41    34    36    1
    42    35    37    1
    43    37    43    1
    44    20    21   ar
    45    21    22   ar
@<TRIPOS>MOLECULE
*****
 43 45 0 0 0
SMALL
GASTEIGER

@<TRIPOS>ATOM
      1 P          22.5090   72.9758   -4.6364 P.3     1  UNL1        0.2189
      2 O          21.5744   74.2651   -4.3486 O.co2   1  UNL1       -0.4371
      3 O          23.8930   73.0556   -4.0618 O.2     1  UNL1       -0.5170
      4 O          22.4243   72.7849   -6.2409 O.3     1  UNL1       -0.3112
      5 C          21.1870   73.0248   -6.8859 C.3     1  UNL1        0.1811
      6 O          19.1228   71.7958   -6.8064 O.3     1  UNL1       -0.3308
      7 O          20.3884   69.9062   -8.7606 O.3     1  UNL1       -0.3794
      8 O          18.7880   71.4311  -10.3573 O.3     1  UNL1       -0.3779
      9 C          20.5233   71.3238   -8.6575 C.3     1  UNL1        0.1713
     10 C          19.2701   72.0076   -9.1616 C.3     1  UNL1        0.1895
     11 C          20.5138   71.6904   -7.1797 C.3     1  UNL1        0.1764
     12 C          18.3161   71.8177   -7.9947 C.3     1  UNL1        0.2383
     13 H          20.3919   69.6479   -9.6960 H       1  UNL1        0.2105
     14 H          19.4305   71.5790  -11.0696 H       1  UNL1        0.2106
     15 O          15.8914   71.6481   -6.5564 O.2     1  UNL1       -0.2464
     16 O          14.7218   75.9671   -7.6618 O.2     1  UNL1       -0.2670
     17 N          17.3594   72.8829   -7.8900 N.ar    1  UNL1       -0.2551
     18 N          15.3107   73.7990   -7.1091 N.ar    1  UNL1       -0.2743
     19 C          16.1725   72.6948   -7.1432 C.ar    1  UNL1        0.3323
     20 C          17.6016   74.0971   -8.5209 C.ar    1  UNL1        0.0869
     21 C          16.7708   75.1406   -8.4793 C.ar    1  UNL1        0.0795
     22 C          15.5079   75.0265   -7.7208 C.ar    1  UNL1        0.2626
     23 H          14.4768   73.6913   -6.5970 H       1  UNL1        0.1734
     24 O          21.6174   71.7491   -4.0769 O.3     1  UNL1       -0.2703
     25 P          21.9172   70.6601   -2.9203 P.3     1  UNL1        0.2208
     26 O          23.5149   70.4270   -3.0369 O.co2   1  UNL1       -0.4371
     27 O          21.0997   69.4055   -3.0288 O.2     1  UNL1       -0.5170
     28 O          21.7234   71.4679   -1.5374 O.3     1  UNL1       -0.2858
     29 O          23.3593   72.8300   -0.4993 O.3     1  UNL1       -0.3226
     30 O          21.0229   71.7195    2.7218 O.3     1  UNL1       -0.3794
     31 O          21.7330   69.7698    0.6654 O.3     1  UNL1       -0.3775
     32 O          20.8010   74.3975    1.6126 O.3     1  UNL1       -0.3792
     33 C          21.2912   72.0521    1.3597 C.3     1  UNL1        0.1718
     34 C          22.3075   71.0663    0.7829 C.3     1  UNL1        0.1968
     35 C          21.8503   73.4761    1.3219 C.3     1  UNL1        0.1723
     36 C          22.7919   71.5229   -0.5940 C.3     1  UNL1        0.2706
     37 C          22.4278   73.8116   -0.0502 C.3     1  UNL1        0.1830
     38 H          20.6665   70.8185    2.7707 H       1  UNL1        0.2105
     39 H          21.4231   69.4739    1.5354 H       1  UNL1        0.2106
     40 H          20.4248   74.1948    2.4834 H       1  UNL1        0.2106
     41 O          23.5808   75.3491    1.2945 O.co2   1  UNL1       -0.5466
     42 O          23.5951   75.7193   -0.9554 O.co2   1  UNL1       -0.5466
     43 C          23.2542   75.0548    0.0117 C.2     1  UNL1        0.0799
@<TRIPOS>UNITY_ATOM_ATTR
2 1
charge -1
26 1
charge -1
41 1
charge -1
@<TRIPOS>BOND
     1     1     4    1
     2     1    24    1
     3     1     2    1
     4     1     3    2
     5    25    28    1
     6    25    24    1
     7    25    26    1
     8    25    27    2
     9     6    11    1
    10     6    12    1
    11    29    36    1
    12    29    37    1
    13     7     9    1
    14     7    13    1
    15     8    10    1
    16     8    14    1
    17     4     5    1
    18    28    36    1
    19    30    33    1
    20    30    38    1
    21    31    34    1
    22    31    39    1
    23    32    35    1
    24    32    40    1
    25    41    43   ar
    26    15    19    2
    27    42    43   ar
    28    16    22    2
    29    17    12    1
    30    17    19   ar
    31    17    20   ar
    32    18    19   ar
    33    18    22   ar
    34    18    23    1
    35     9    10    1
    36     9    11    1
    37    10    12    1
    38    11     5    1
    39    33    34    1
    40    33    35    1
    41    34    36    1
    42    35    37    1
    43    37    43    1
    44    20    21   ar
    45    21    22   ar
