@<TRIPOS>MOLECULE
UD1
 46 48 0 0 0
SMALL
GASTEIGER

@<TRIPOS>ATOM
      1 P          22.1846   70.9274   -2.5007 P.3     1  UNL1        0.2189
      2 O          23.4540   70.6221   -3.1964 O.2     1  UNL1       -0.5170
      3 O          21.5499   69.5662   -1.9202 O.3     1  UNL1       -0.4371
      4 O          21.1528   71.5996   -3.5382 O.3     1  UNL1       -0.3112
      5 C          20.1723   72.2873   -2.7599 C.3     1  UNL1        0.1811
      6 C          17.9275   71.3318   -5.4010 C.3     1  UNL1        0.2383
      7 C          18.0333   70.0713   -4.5065 C.3     1  UNL1        0.1895
      8 O          16.8208   69.3177   -4.5397 O.3     1  UNL1       -0.3779
      9 C          18.2637   70.6872   -3.1019 C.3     1  UNL1        0.1713
     10 C          18.7938   72.1038   -3.3966 C.3     1  UNL1        0.1764
     11 O          18.8933   72.2367   -4.8248 O.3     1  UNL1       -0.3308
     12 O          17.0350   70.7472   -2.3742 O.3     1  UNL1       -0.3794
     13 H          16.9521   68.5502   -3.9659 H       1  UNL1        0.2106
     14 H          16.7249   69.8373   -2.2743 H       1  UNL1        0.2105
     15 N          18.2780   71.0165   -6.7863 N.ar    1  UNL1       -0.2551
     16 C          17.3082   70.7123   -7.6663 C.ar    1  UNL1        0.3323
     17 N          17.6012   70.4220   -8.9477 N.ar    1  UNL1       -0.2743
     18 C          18.8820   70.4229   -9.3690 C.ar    1  UNL1        0.2626
     19 C          19.9133   70.7355   -8.4517 C.ar    1  UNL1        0.0795
     20 C          19.5910   71.0281   -7.1735 C.ar    1  UNL1        0.0869
     21 O          16.1482   70.7073   -7.3015 O.2     1  UNL1       -0.2464
     22 O          19.1484   70.1559  -10.5262 O.2     1  UNL1       -0.2670
     23 H          16.8886   70.2095   -9.5700 H       1  UNL1        0.1734
     24 O          22.4684   71.9477   -1.2894 O.3     1  UNL1       -0.2703
     25 P          22.4953   71.0713    0.0599 P.3     1  UNL1        0.2208
     26 O          23.5384   70.0279   -0.0505 O.2     1  UNL1       -0.5170
     27 O          21.0605   70.3738    0.2765 O.3     1  UNL1       -0.4371
     28 O          22.8214   72.0253    1.3145 O.3     1  UNL1       -0.2865
     29 C          22.0688   73.2255    1.1293 C.3     1  UNL1        0.2611
     30 C          23.0284   74.4117    1.0203 C.3     1  UNL1        0.1582
     31 C          23.8714   74.4935    2.2979 C.3     1  UNL1        0.1625
     32 C          22.9290   74.5261    3.5057 C.3     1  UNL1        0.1686
     33 C          21.9787   73.3292    3.4288 C.3     1  UNL1        0.1760
     34 O          24.6646   75.6817    2.2730 O.3     1  UNL1       -0.3801
     35 O          23.6937   74.4543    4.7106 O.3     1  UNL1       -0.3794
     36 O          21.1940   73.4124    2.2398 O.3     1  UNL1       -0.3263
     37 H          25.1775   75.6924    3.0928 H       1  UNL1        0.2105
     38 H          23.0628   74.4768    5.4440 H       1  UNL1        0.2105
     39 C          23.8928   75.1194   -1.1445 C.2     1  UNL1        0.2231
     40 C          24.7972   74.9278   -2.3351 C.3     1  UNL1        0.0946
     41 N          23.9072   74.2263   -0.1363 N.am    1  UNL1       -0.2994
     42 O          23.1514   76.0775   -1.0943 O.2     1  UNL1       -0.2751
     43 H          24.5003   73.4594   -0.1763 H       1  UNL1        0.1496
     44 C          21.0543   73.3344    4.6480 C.3     1  UNL1        0.1693
     45 O          19.7233   73.0136    4.2386 O.3     1  UNL1       -0.3794
     46 H          19.1747   73.0279    5.0344 H       1  UNL1        0.2105
@<TRIPOS>BOND
     1    29    30    1
     2    29    28    1
     3    29    36    1
     4    30    31    1
     5    30    41    1
     6    31    32    1
     7    31    34    1
     8    32    33    1
     9    32    35    1
    10    33    44    1
    11    33    36    1
    12    44    45    1
    13    39    40    1
    14    39    41   am
    15    39    42    2
    16    41    43    1
    17    28    25    1
    18    34    37    1
    19    35    38    1
    20    45    46    1
    21    15    16   ar
    22    15    20   ar
    23    15     6    1
    24    16    17   ar
    25    16    21    2
    26    17    18   ar
    27    17    23    1
    28    18    19   ar
    29    18    22    2
    30    19    20   ar
    31     6     7    1
    32     6    11    1
    33     7     8    1
    34     7     9    1
    35     8    13    1
    36     9    10    1
    37     9    12    1
    38    10    11    1
    39    10     5    1
    40    12    14    1
    41     5     4    1
    42     4     1    1
    43     1     2    2
    44     1     3    1
    45     1    24    1
    46    24    25    1
    47    25    26    2
    48    25    27    1
@<TRIPOS>MOLECULE
UD1
 46 48 0 0 0
SMALL
GASTEIGER

@<TRIPOS>ATOM
      1 P          21.6336   70.6354   -0.5128 P.3     1  UNL1        0.2189
      2 O          23.0266   70.7690   -0.9930 O.2     1  UNL1       -0.5170
      3 O          21.5693   69.5159    0.6427 O.3     1  UNL1       -0.4371
      4 O          20.6842   70.1967   -1.7371 O.3     1  UNL1       -0.3112
      5 C          20.7245   71.2576   -2.6928 C.3     1  UNL1        0.1811
      6 C          18.2432   71.1443   -5.2924 C.3     1  UNL1        0.2383
      7 C          18.0624   69.8107   -4.5248 C.3     1  UNL1        0.1895
      8 O          16.7022   69.3779   -4.5655 O.3     1  UNL1       -0.3779
      9 C          18.4744   70.2064   -3.0830 C.3     1  UNL1        0.1713
     10 C          19.3261   71.4766   -3.2723 C.3     1  UNL1        0.1764
     11 O          19.4160   71.7269   -4.6852 O.3     1  UNL1       -0.3308
     12 O          17.3178   70.4852   -2.2909 O.3     1  UNL1       -0.3794
     13 H          16.6578   68.5469   -4.0726 H       1  UNL1        0.2106
     14 H          16.7979   69.6711   -2.2597 H       1  UNL1        0.2105
     15 N          18.4682   70.8972   -6.7171 N.ar    1  UNL1       -0.2551
     16 C          17.4172   70.7797   -7.5471 C.ar    1  UNL1        0.3323
     17 N          17.5945   70.5563   -8.8627 N.ar    1  UNL1       -0.2743
     18 C          18.8380   70.4368   -9.3701 C.ar    1  UNL1        0.2626
     19 C          19.9533   70.5524   -8.5065 C.ar    1  UNL1        0.0795
     20 C          19.7469   70.7819   -7.1920 C.ar    1  UNL1        0.0869
     21 O          16.2896   70.8851   -7.1045 O.2     1  UNL1       -0.2464
     22 O          18.9994   70.2300  -10.5586 O.2     1  UNL1       -0.2670
     23 H          16.8251   70.4790   -9.4476 H       1  UNL1        0.1734
     24 O          21.1316   72.0459    0.0766 O.3     1  UNL1       -0.2703
     25 P          21.8497   72.2353    1.5041 P.3     1  UNL1        0.2208
     26 O          23.0904   71.4303    1.5427 O.2     1  UNL1       -0.5170
     27 O          20.8573   71.7468    2.6740 O.3     1  UNL1       -0.4371
     28 O          22.2109   73.7885    1.7226 O.3     1  UNL1       -0.2865
     29 C          22.6968   73.9168    3.0600 C.3     1  UNL1        0.2611
     30 C          21.9125   75.0159    3.7790 C.3     1  UNL1        0.1582
     31 C          22.0799   76.3335    3.0137 C.3     1  UNL1        0.1625
     32 C          23.5765   76.6103    2.8358 C.3     1  UNL1        0.1686
     33 C          24.2347   75.3918    2.1851 C.3     1  UNL1        0.1760
     34 O          21.4775   77.3969    3.7537 O.3     1  UNL1       -0.3801
     35 O          23.7547   77.7551    1.9995 O.3     1  UNL1       -0.3794
     36 O          24.0824   74.2525    3.0307 O.3     1  UNL1       -0.3263
     37 H          21.6056   78.2044    3.2371 H       1  UNL1        0.2105
     38 H          24.7087   77.8928    1.9135 H       1  UNL1        0.2105
     39 C          19.9663   74.1474    4.9589 C.2     1  UNL1        0.2231
     40 C          18.5067   73.7743    5.0088 C.3     1  UNL1        0.0946
     41 N          20.4945   74.6539    3.8281 N.am    1  UNL1       -0.2994
     42 O          20.6658   73.9910    5.9369 O.2     1  UNL1       -0.2751
     43 H          19.9350   74.7789    3.0452 H       1  UNL1        0.1496
     44 C          25.7242   75.6707    1.9732 C.3     1  UNL1        0.1693
     45 O          26.0452   75.5201    0.5889 O.3     1  UNL1       -0.3794
     46 H          26.9901   75.7037    0.4992 H       1  UNL1        0.2105
@<TRIPOS>BOND
     1    29    30    1
     2    29    28    1
     3    29    36    1
     4    30    31    1
     5    30    41    1
     6    31    32    1
     7    31    34    1
     8    32    33    1
     9    32    35    1
    10    33    44    1
    11    33    36    1
    12    44    45    1
    13    39    40    1
    14    39    41   am
    15    39    42    2
    16    41    43    1
    17    28    25    1
    18    34    37    1
    19    35    38    1
    20    45    46    1
    21    15    16   ar
    22    15    20   ar
    23    15     6    1
    24    16    17   ar
    25    16    21    2
    26    17    18   ar
    27    17    23    1
    28    18    19   ar
    29    18    22    2
    30    19    20   ar
    31     6     7    1
    32     6    11    1
    33     7     8    1
    34     7     9    1
    35     8    13    1
    36     9    10    1
    37     9    12    1
    38    10    11    1
    39    10     5    1
    40    12    14    1
    41     5     4    1
    42     4     1    1
    43     1     2    2
    44     1     3    1
    45     1    24    1
    46    24    25    1
    47    25    26    2
    48    25    27    1
@<TRIPOS>MOLECULE
UD1
 46 48 0 0 0
SMALL
GASTEIGER

@<TRIPOS>ATOM
      1 P          21.7724   70.3534   -0.4809 P.3     1  UNL1        0.2189
      2 O          23.0253   70.8131   -1.1194 O.2     1  UNL1       -0.5170
      3 O          22.0902   69.1090    0.4903 O.3     1  UNL1       -0.4371
      4 O          20.7291   69.8929   -1.6176 O.3     1  UNL1       -0.3112
      5 C          20.8802   70.8004   -2.7102 C.3     1  UNL1        0.1811
      6 C          18.3647   71.0370   -5.2683 C.3     1  UNL1        0.2383
      7 C          18.0657   69.6958   -4.5527 C.3     1  UNL1        0.1895
      8 O          16.6695   69.3983   -4.5871 O.3     1  UNL1       -0.3779
      9 C          18.5337   69.9886   -3.1034 C.3     1  UNL1        0.1713
     10 C          19.5019   71.1776   -3.2556 C.3     1  UNL1        0.1764
     11 O          19.5966   71.4776   -4.6586 O.3     1  UNL1       -0.3308
     12 O          17.4205   70.3438   -2.2804 O.3     1  UNL1       -0.3794
     13 H          16.5513   68.5553   -4.1278 H       1  UNL1        0.2106
     14 H          16.8244   69.5830   -2.2733 H       1  UNL1        0.2105
     15 N          18.5453   70.8299   -6.7056 N.ar    1  UNL1       -0.2551
     16 C          17.4690   70.7309   -7.5050 C.ar    1  UNL1        0.3323
     17 N          17.6053   70.5442   -8.8312 N.ar    1  UNL1       -0.2743
     18 C          18.8325   70.4437   -9.3806 C.ar    1  UNL1        0.2626
     19 C          19.9742   70.5402   -8.5498 C.ar    1  UNL1        0.0795
     20 C          19.8087   70.7328   -7.2235 C.ar    1  UNL1        0.0869
     21 O          16.3555   70.8196   -7.0243 O.2     1  UNL1       -0.2464
     22 O          18.9569   70.2702  -10.5788 O.2     1  UNL1       -0.2670
     23 H          16.8180   70.4798   -9.3935 H       1  UNL1        0.1734
     24 O          21.1347   71.5558    0.3772 O.3     1  UNL1       -0.2703
     25 P          22.0261   71.7001    1.7092 P.3     1  UNL1        0.2208
     26 O          22.8610   70.4903    1.8772 O.2     1  UNL1       -0.5170
     27 O          21.0603   71.8664    2.9866 O.3     1  UNL1       -0.4371
     28 O          22.9752   72.9939    1.5837 O.3     1  UNL1       -0.2865
     29 C          22.2129   74.1129    2.0395 C.3     1  UNL1        0.2611
     30 C          22.4757   75.3097    1.1238 C.3     1  UNL1        0.1582
     31 C          23.9739   75.6332    1.1392 C.3     1  UNL1        0.1625
     32 C          24.4213   75.8144    2.5936 C.3     1  UNL1        0.1686
     33 C          24.0143   74.5780    3.3979 C.3     1  UNL1        0.1760
     34 O          24.2113   76.8376    0.4081 O.3     1  UNL1       -0.3801
     35 O          25.8407   75.9713    2.6410 O.3     1  UNL1       -0.3794
     36 O          22.5947   74.4339    3.3754 O.3     1  UNL1       -0.3263
     37 H          25.1635   77.0027    0.4433 H       1  UNL1        0.2105
     38 H          26.0790   76.0813    3.5724 H       1  UNL1        0.2105
     39 C          22.9452   74.4632   -1.1117 C.2     1  UNL1        0.2231
     40 C          22.5153   74.1276   -2.5169 C.3     1  UNL1        0.0946
     41 N          22.0584   74.9830   -0.2413 N.am    1  UNL1       -0.2994
     42 O          24.0901   74.2660   -0.7645 O.2     1  UNL1       -0.2751
     43 H          21.1421   75.1412   -0.5190 H       1  UNL1        0.1496
     44 C          24.4854   74.7348    4.8451 C.3     1  UNL1        0.1693
     45 O          25.8434   74.3033    4.9539 O.3     1  UNL1       -0.3794
     46 H          26.1002   74.4180    5.8789 H       1  UNL1        0.2105
@<TRIPOS>BOND
     1    29    30    1
     2    29    28    1
     3    29    36    1
     4    30    31    1
     5    30    41    1
     6    31    32    1
     7    31    34    1
     8    32    33    1
     9    32    35    1
    10    33    44    1
    11    33    36    1
    12    44    45    1
    13    39    40    1
    14    39    41   am
    15    39    42    2
    16    41    43    1
    17    28    25    1
    18    34    37    1
    19    35    38    1
    20    45    46    1
    21    15    16   ar
    22    15    20   ar
    23    15     6    1
    24    16    17   ar
    25    16    21    2
    26    17    18   ar
    27    17    23    1
    28    18    19   ar
    29    18    22    2
    30    19    20   ar
    31     6     7    1
    32     6    11    1
    33     7     8    1
    34     7     9    1
    35     8    13    1
    36     9    10    1
    37     9    12    1
    38    10    11    1
    39    10     5    1
    40    12    14    1
    41     5     4    1
    42     4     1    1
    43     1     2    2
    44     1     3    1
    45     1    24    1
    46    24    25    1
    47    25    26    2
    48    25    27    1
@<TRIPOS>MOLECULE
UD1
 46 48 0 0 0
SMALL
GASTEIGER

@<TRIPOS>ATOM
      1 P          22.2619   70.4975   -0.4649 P.3     1  UNL1        0.2189
      2 O          23.3680   69.7397    0.1604 O.2     1  UNL1       -0.5170
      3 O          21.3950   71.2250    0.6804 O.3     1  UNL1       -0.4371
      4 O          21.3185   69.4864   -1.2898 O.3     1  UNL1       -0.3112
      5 C          21.2733   69.9664   -2.6344 C.3     1  UNL1        0.1811
      6 C          18.5722   70.6366   -4.9108 C.3     1  UNL1        0.2383
      7 C          18.4198   69.1356   -4.5588 C.3     1  UNL1        0.1895
      8 O          17.0491   68.7375   -4.6001 O.3     1  UNL1       -0.3779
      9 C          18.9677   69.0839   -3.1089 C.3     1  UNL1        0.1713
     10 C          19.8368   70.3510   -2.9916 C.3     1  UNL1        0.1764
     11 O          19.8103   71.0098   -4.2693 O.3     1  UNL1       -0.3308
     12 O          17.8935   69.1172   -2.1666 O.3     1  UNL1       -0.3794
     13 H          17.0233   67.7977   -4.3731 H       1  UNL1        0.2106
     14 H          17.3544   68.3318   -2.3299 H       1  UNL1        0.2105
     15 N          18.6645   70.8237   -6.3592 N.ar    1  UNL1       -0.2551
     16 C          17.5413   70.9014   -7.0939 C.ar    1  UNL1        0.3323
     17 N          17.5962   71.0772   -8.4275 N.ar    1  UNL1       -0.2743
     18 C          18.7874   71.1695   -9.0523 C.ar    1  UNL1        0.2626
     19 C          19.9778   71.0833   -8.2917 C.ar    1  UNL1        0.0795
     20 C          19.8938   70.9122   -6.9549 C.ar    1  UNL1        0.0869
     21 O          16.4594   70.8200   -6.5449 O.2     1  UNL1       -0.2464
     22 O          18.8382   71.3236  -10.2585 O.2     1  UNL1       -0.2670
     23 H          16.7759   71.1359   -8.9412 H       1  UNL1        0.1734
     24 O          22.8670   71.6032   -1.4650 O.3     1  UNL1       -0.2703
     25 P          22.2891   73.0272   -0.9881 P.3     1  UNL1        0.2208
     26 O          22.9756   73.4474    0.2533 O.2     1  UNL1       -0.5170
     27 O          20.7085   72.8997   -0.7095 O.3     1  UNL1       -0.4371
     28 O          22.5429   74.1235   -2.1389 O.3     1  UNL1       -0.2865
     29 C          23.7405   73.7417   -2.8181 C.3     1  UNL1        0.2611
     30 C          24.7395   74.8991   -2.7697 C.3     1  UNL1        0.1582
     31 C          24.1116   76.1312   -3.4310 C.3     1  UNL1        0.1625
     32 C          23.6307   75.7432   -4.8333 C.3     1  UNL1        0.1686
     33 C          22.7128   74.5238   -4.7257 C.3     1  UNL1        0.1760
     34 O          25.0856   77.1722   -3.5262 O.3     1  UNL1       -0.3801
     35 O          22.9121   76.8347   -5.4111 O.3     1  UNL1       -0.3794
     36 O          23.4353   73.4236   -4.1743 O.3     1  UNL1       -0.3263
     37 H          24.6490   77.9258   -3.9466 H       1  UNL1        0.2105
     38 H          22.6276   76.5480   -6.2905 H       1  UNL1        0.2105
     39 C          26.3401   75.4784   -1.0270 C.2     1  UNL1        0.2231
     40 C          26.6780   75.7922    0.4081 C.3     1  UNL1        0.0946
     41 N          25.0682   75.2045   -1.3758 N.am    1  UNL1       -0.2994
     42 O          27.2134   75.4717   -1.8680 O.2     1  UNL1       -0.2751
     43 H          24.3691   75.2095   -0.7029 H       1  UNL1        0.1496
     44 C          22.2009   74.1478   -6.1177 C.3     1  UNL1        0.1693
     45 O          22.7318   72.8754   -6.4933 O.3     1  UNL1       -0.3794
     46 H          22.3859   72.6768   -7.3740 H       1  UNL1        0.2105
@<TRIPOS>BOND
     1    29    30    1
     2    29    28    1
     3    29    36    1
     4    30    31    1
     5    30    41    1
     6    31    32    1
     7    31    34    1
     8    32    33    1
     9    32    35    1
    10    33    44    1
    11    33    36    1
    12    44    45    1
    13    39    40    1
    14    39    41   am
    15    39    42    2
    16    41    43    1
    17    28    25    1
    18    34    37    1
    19    35    38    1
    20    45    46    1
    21    15    16   ar
    22    15    20   ar
    23    15     6    1
    24    16    17   ar
    25    16    21    2
    26    17    18   ar
    27    17    23    1
    28    18    19   ar
    29    18    22    2
    30    19    20   ar
    31     6     7    1
    32     6    11    1
    33     7     8    1
    34     7     9    1
    35     8    13    1
    36     9    10    1
    37     9    12    1
    38    10    11    1
    39    10     5    1
    40    12    14    1
    41     5     4    1
    42     4     1    1
    43     1     2    2
    44     1     3    1
    45     1    24    1
    46    24    25    1
    47    25    26    2
    48    25    27    1
@<TRIPOS>MOLECULE
UD1
 46 48 0 0 0
SMALL
GASTEIGER

@<TRIPOS>ATOM
      1 P          23.3231   74.2605   -4.5266 P.3     1  UNL1        0.2189
      2 O          24.4435   75.2148   -4.6778 O.2     1  UNL1       -0.5170
      3 O          23.8821   72.8626   -3.9556 O.3     1  UNL1       -0.4371
      4 O          22.6307   74.0152   -5.9595 O.3     1  UNL1       -0.3112
      5 C          21.9723   75.2321   -6.3147 C.3     1  UNL1        0.1811
      6 C          19.3003   73.8063   -8.2524 C.3     1  UNL1        0.2383
      7 C          18.7302   75.1508   -7.7353 C.3     1  UNL1        0.1895
      8 O          17.7888   75.6964   -8.6602 O.3     1  UNL1       -0.3779
      9 C          20.0023   76.0343   -7.6545 C.3     1  UNL1        0.1713
     10 C          21.1599   75.0191   -7.5929 C.3     1  UNL1        0.1764
     11 O          20.5784   73.7042   -7.5893 O.3     1  UNL1       -0.3308
     12 O          20.1131   76.8593   -8.8164 O.3     1  UNL1       -0.3794
     13 H          17.4729   76.5280   -8.2807 H       1  UNL1        0.2106
     14 H          19.3322   77.4286   -8.8301 H       1  UNL1        0.2105
     15 N          18.4307   72.6926   -7.8715 N.ar    1  UNL1       -0.2551
     16 C          18.3320   71.6194   -8.6751 C.ar    1  UNL1        0.3323
     17 N          17.5430   70.5788   -8.3480 N.ar    1  UNL1       -0.2743
     18 C          16.8273   70.6016   -7.2056 C.ar    1  UNL1        0.2626
     19 C          16.9173   71.7278   -6.3533 C.ar    1  UNL1        0.0795
     20 C          17.7205   72.7554   -6.7030 C.ar    1  UNL1        0.0869
     21 O          18.9713   71.5841   -9.7088 O.2     1  UNL1       -0.2464
     22 O          16.1099   69.6634   -6.9112 O.2     1  UNL1       -0.2670
     23 H          17.4875   69.8107   -8.9372 H       1  UNL1        0.1734
     24 O          22.2384   74.8641   -3.5030 O.3     1  UNL1       -0.2703
     25 P          22.7886   74.5750   -2.0187 P.3     1  UNL1        0.2208
     26 O          22.0540   75.4157   -1.0479 O.2     1  UNL1       -0.5170
     27 O          24.3588   74.9246   -1.9500 O.3     1  UNL1       -0.4371
     28 O          22.5699   73.0220   -1.6570 O.3     1  UNL1       -0.2865
     29 C          21.2856   72.9171   -1.0398 C.3     1  UNL1        0.2611
     30 C          21.3191   71.8049    0.0100 C.3     1  UNL1        0.1582
     31 C          21.7022   70.4855   -0.6698 C.3     1  UNL1        0.1625
     32 C          20.7486   70.2445   -1.8448 C.3     1  UNL1        0.1686
     33 C          20.7605   71.4734   -2.7563 C.3     1  UNL1        0.1760
     34 O          21.5916   69.4137    0.2686 O.3     1  UNL1       -0.3801
     35 O          21.1775   69.0975   -2.5809 O.3     1  UNL1       -0.3794
     36 O          20.3064   72.6158   -2.0316 O.3     1  UNL1       -0.3263
     37 H          21.8413   68.6053   -0.1999 H       1  UNL1        0.2105
     38 H          20.5514   68.9828   -3.3099 H       1  UNL1        0.2105
     39 C          21.9336   72.2273    2.3291 C.2     1  UNL1        0.2231
     40 C          22.9523   72.5646    3.3878 C.3     1  UNL1        0.0946
     41 N          22.3084   72.1320    1.0388 N.am    1  UNL1       -0.2994
     42 O          20.7759   72.0424    2.6386 O.2     1  UNL1       -0.2751
     43 H          23.2348   72.2802    0.7908 H       1  UNL1        0.1496
     44 C          19.8356   71.2299   -3.9507 C.3     1  UNL1        0.1693
     45 O          18.7715   70.3597   -3.5601 O.3     1  UNL1       -0.3794
     46 H          18.2139   70.2323   -4.3394 H       1  UNL1        0.2105
@<TRIPOS>BOND
     1    29    30    1
     2    29    28    1
     3    29    36    1
     4    30    31    1
     5    30    41    1
     6    31    32    1
     7    31    34    1
     8    32    33    1
     9    32    35    1
    10    33    44    1
    11    33    36    1
    12    44    45    1
    13    39    40    1
    14    39    41   am
    15    39    42    2
    16    41    43    1
    17    28    25    1
    18    34    37    1
    19    35    38    1
    20    45    46    1
    21    15    16   ar
    22    15    20   ar
    23    15     6    1
    24    16    17   ar
    25    16    21    2
    26    17    18   ar
    27    17    23    1
    28    18    19   ar
    29    18    22    2
    30    19    20   ar
    31     6     7    1
    32     6    11    1
    33     7     8    1
    34     7     9    1
    35     8    13    1
    36     9    10    1
    37     9    12    1
    38    10    11    1
    39    10     5    1
    40    12    14    1
    41     5     4    1
    42     4     1    1
    43     1     2    2
    44     1     3    1
    45     1    24    1
    46    24    25    1
    47    25    26    2
    48    25    27    1
@<TRIPOS>MOLECULE
UD1
 46 48 0 0 0
SMALL
GASTEIGER

@<TRIPOS>ATOM
      1 P          18.9572   70.2288   -3.2553 P.3     1  UNL1        0.2189
      2 O          19.5912   69.5597   -4.4125 O.2     1  UNL1       -0.5170
      3 O          17.3690   69.9656   -3.2870 O.3     1  UNL1       -0.4371
      4 O          19.2393   71.8123   -3.3310 O.3     1  UNL1       -0.3112
      5 C          17.9871   72.4664   -3.1201 C.3     1  UNL1        0.1811
      6 C          17.6733   73.2548   -6.6139 C.3     1  UNL1        0.2383
      7 C          16.2502   72.8173   -6.1854 C.3     1  UNL1        0.1895
      8 O          15.2545   73.4938   -6.9535 O.3     1  UNL1       -0.3779
      9 C          16.2044   73.2666   -4.7017 C.3     1  UNL1        0.1713
     10 C          17.6875   73.3898   -4.3019 C.3     1  UNL1        0.1764
     11 O          18.4733   72.9976   -5.4403 O.3     1  UNL1       -0.3308
     12 O          15.5406   74.5266   -4.5807 O.3     1  UNL1       -0.3794
     13 H          14.3959   73.1781   -6.6394 H       1  UNL1        0.2106
     14 H          14.6378   74.3985   -4.9010 H       1  UNL1        0.2105
     15 N          18.1441   72.4546   -7.7450 N.ar    1  UNL1       -0.2551
     16 C          18.3554   73.0428   -8.9353 C.ar    1  UNL1        0.3323
     17 N          18.7921   72.3321   -9.9919 N.ar    1  UNL1       -0.2743
     18 C          19.0170   71.0080   -9.8740 C.ar    1  UNL1        0.2626
     19 C          18.7929   70.3748   -8.6283 C.ar    1  UNL1        0.0795
     20 C          18.3599   71.1125   -7.5835 C.ar    1  UNL1        0.0869
     21 O          18.1572   74.2363   -9.0573 O.2     1  UNL1       -0.2464
     22 O          19.4073   70.3635  -10.8299 O.2     1  UNL1       -0.2670
     23 H          18.9438   72.7737  -10.8417 H       1  UNL1        0.1734
     24 O          19.5728   69.6389   -1.8908 O.3     1  UNL1       -0.2703
     25 P          21.0747   70.2048   -1.7756 P.3     1  UNL1        0.2208
     26 O          21.8374   69.8295   -2.9865 O.2     1  UNL1       -0.5170
     27 O          21.7879   69.5753   -0.4766 O.3     1  UNL1       -0.4371
     28 O          21.0366   71.8082   -1.6410 O.3     1  UNL1       -0.2865
     29 C          22.3475   72.2228   -1.2528 C.3     1  UNL1        0.2611
     30 C          22.2369   73.3509   -0.2255 C.3     1  UNL1        0.1582
     31 C          21.4612   74.5188   -0.8452 C.3     1  UNL1        0.1625
     32 C          22.1311   74.9050   -2.1681 C.3     1  UNL1        0.1686
     33 C          22.2469   73.6601   -3.0502 C.3     1  UNL1        0.1760
     34 O          21.4799   75.6336    0.0482 O.3     1  UNL1       -0.3801
     35 O          21.3409   75.8921   -2.8336 O.3     1  UNL1       -0.3794
     36 O          23.0584   72.6825   -2.4003 O.3     1  UNL1       -0.3263
     37 H          20.9817   76.3433   -0.3801 H       1  UNL1        0.2105
     38 H          21.7974   76.1054   -3.6598 H       1  UNL1        0.2105
     39 C          22.0780   73.0113    2.1815 C.2     1  UNL1        0.2231
     40 C          21.3484   72.5112    3.4020 C.3     1  UNL1        0.0946
     41 N          21.5282   72.8657    0.9605 N.am    1  UNL1       -0.2994
     42 O          23.1607   73.5444    2.2984 O.2     1  UNL1       -0.2751
     43 H          20.6619   72.4388    0.8666 H       1  UNL1        0.1496
     44 C          22.8854   74.0416   -4.3873 C.3     1  UNL1        0.1693
     45 O          23.1315   72.8600   -5.1525 O.3     1  UNL1       -0.3794
     46 H          23.5332   73.1441   -5.9846 H       1  UNL1        0.2105
@<TRIPOS>BOND
     1    29    30    1
     2    29    28    1
     3    29    36    1
     4    30    31    1
     5    30    41    1
     6    31    32    1
     7    31    34    1
     8    32    33    1
     9    32    35    1
    10    33    44    1
    11    33    36    1
    12    44    45    1
    13    39    40    1
    14    39    41   am
    15    39    42    2
    16    41    43    1
    17    28    25    1
    18    34    37    1
    19    35    38    1
    20    45    46    1
    21    15    16   ar
    22    15    20   ar
    23    15     6    1
    24    16    17   ar
    25    16    21    2
    26    17    18   ar
    27    17    23    1
    28    18    19   ar
    29    18    22    2
    30    19    20   ar
    31     6     7    1
    32     6    11    1
    33     7     8    1
    34     7     9    1
    35     8    13    1
    36     9    10    1
    37     9    12    1
    38    10    11    1
    39    10     5    1
    40    12    14    1
    41     5     4    1
    42     4     1    1
    43     1     2    2
    44     1     3    1
    45     1    24    1
    46    24    25    1
    47    25    26    2
    48    25    27    1
@<TRIPOS>MOLECULE
UD1
 46 48 0 0 0
SMALL
GASTEIGER

@<TRIPOS>ATOM
      1 P          22.2217   70.6199    0.9186 P.3     1  UNL1        0.2189
      2 O          21.5589   69.4313    0.3383 O.2     1  UNL1       -0.5170
      3 O          23.4645   70.1507    1.8285 O.3     1  UNL1       -0.4371
      4 O          21.1684   71.4307    1.8275 O.3     1  UNL1       -0.3112
      5 C          21.9316   72.2522    2.7123 C.3     1  UNL1        0.1811
      6 C          21.1694   74.8166    5.1144 C.3     1  UNL1        0.2383
      7 C          21.2585   75.5662    3.7615 C.3     1  UNL1        0.1895
      8 O          20.3883   76.6983    3.7462 O.3     1  UNL1       -0.3779
      9 C          20.7781   74.4854    2.7583 C.3     1  UNL1        0.1713
     10 C          20.9903   73.1567    3.5092 C.3     1  UNL1        0.1764
     11 O          21.5777   73.4723    4.7831 O.3     1  UNL1       -0.3308
     12 O          19.3970   74.6742    2.4428 O.3     1  UNL1       -0.3794
     13 H          20.4912   77.1190    2.8813 H       1  UNL1        0.2106
     14 H          19.3211   75.5451    2.0307 H       1  UNL1        0.2105
     15 N          22.0812   75.4059    6.0957 N.ar    1  UNL1       -0.2551
     16 C          21.8360   75.2535    7.4087 C.ar    1  UNL1        0.3323
     17 N          22.6597   75.7812    8.3335 N.ar    1  UNL1       -0.2743
     18 C          23.7461   76.4838    7.9540 C.ar    1  UNL1        0.2626
     19 C          24.0129   76.6570    6.5750 C.ar    1  UNL1        0.0795
     20 C          23.1731   76.1124    5.6686 C.ar    1  UNL1        0.0869
     21 O          20.8602   74.6224    7.7667 O.2     1  UNL1       -0.2464
     22 O          24.4889   76.9654    8.7892 O.2     1  UNL1       -0.2670
     23 H          22.4701   75.6574    9.2763 H       1  UNL1        0.1734
     24 O          22.7515   71.5709   -0.2661 O.3     1  UNL1       -0.2703
     25 P          22.2836   70.8949   -1.6494 P.3     1  UNL1        0.2208
     26 O          21.8385   69.5072   -1.3943 O.2     1  UNL1       -0.5170
     27 O          23.5167   70.8805   -2.6846 O.3     1  UNL1       -0.4371
     28 O          21.0674   71.7415   -2.2775 O.3     1  UNL1       -0.2865
     29 C          21.0339   71.4448   -3.6747 C.3     1  UNL1        0.2611
     30 C          20.4291   72.6306   -4.4284 C.3     1  UNL1        0.1582
     31 C          19.0157   72.8940   -3.8972 C.3     1  UNL1        0.1625
     32 C          18.2115   71.5921   -3.9769 C.3     1  UNL1        0.1686
     33 C          18.9823   70.4852   -3.2544 C.3     1  UNL1        0.1760
     34 O          18.3850   73.8997   -4.6923 O.3     1  UNL1       -0.3801
     35 O          16.9398   71.7768   -3.3523 O.3     1  UNL1       -0.3794
     36 O          20.2420   70.2792   -3.8927 O.3     1  UNL1       -0.3263
     37 H          17.5009   74.0337   -4.3237 H       1  UNL1        0.2105
     38 H          16.4679   70.9349   -3.4242 H       1  UNL1        0.2105
     39 C          22.4135   73.9618   -4.9024 C.2     1  UNL1        0.2231
     40 C          23.2690   75.1843   -4.6883 C.3     1  UNL1        0.0946
     41 N          21.2603   73.8183   -4.2212 N.am    1  UNL1       -0.2994
     42 O          22.7635   73.1067   -5.6875 O.2     1  UNL1       -0.2751
     43 H          20.9801   74.5023   -3.5927 H       1  UNL1        0.1496
     44 C          18.1723   69.1879   -3.3002 C.3     1  UNL1        0.1693
     45 O          17.1999   69.2696   -4.3442 O.3     1  UNL1       -0.3794
     46 H          16.7125   68.4347   -4.3386 H       1  UNL1        0.2105
@<TRIPOS>BOND
     1    29    30    1
     2    29    28    1
     3    29    36    1
     4    30    31    1
     5    30    41    1
     6    31    32    1
     7    31    34    1
     8    32    33    1
     9    32    35    1
    10    33    44    1
    11    33    36    1
    12    44    45    1
    13    39    40    1
    14    39    41   am
    15    39    42    2
    16    41    43    1
    17    28    25    1
    18    34    37    1
    19    35    38    1
    20    45    46    1
    21    15    16   ar
    22    15    20   ar
    23    15     6    1
    24    16    17   ar
    25    16    21    2
    26    17    18   ar
    27    17    23    1
    28    18    19   ar
    29    18    22    2
    30    19    20   ar
    31     6     7    1
    32     6    11    1
    33     7     8    1
    34     7     9    1
    35     8    13    1
    36     9    10    1
    37     9    12    1
    38    10    11    1
    39    10     5    1
    40    12    14    1
    41     5     4    1
    42     4     1    1
    43     1     2    2
    44     1     3    1
    45     1    24    1
    46    24    25    1
    47    25    26    2
    48    25    27    1
@<TRIPOS>MOLECULE
UD1
 46 48 0 0 0
SMALL
GASTEIGER

@<TRIPOS>ATOM
      1 P          22.9135   72.0680   -3.2039 P.3     1  UNL1        0.2189
      2 O          23.4116   70.6829   -3.3534 O.2     1  UNL1       -0.5170
      3 O          23.8081   73.0599   -4.1031 O.3     1  UNL1       -0.4371
      4 O          23.0129   72.5096   -1.6587 O.3     1  UNL1       -0.3112
      5 C          21.7837   73.1610   -1.3345 C.3     1  UNL1        0.1811
      6 C          22.5502   75.2076    1.5205 C.3     1  UNL1        0.2383
      7 C          23.9310   74.8610    0.9094 C.3     1  UNL1        0.1895
      8 O          24.8704   75.9113    1.1406 O.3     1  UNL1       -0.3779
      9 C          23.5976   74.7391   -0.6003 C.3     1  UNL1        0.1713
     10 C          22.0779   74.4856   -0.6288 C.3     1  UNL1        0.1764
     11 O          21.6270   74.4237    0.7350 O.3     1  UNL1       -0.3308
     12 O          23.9220   75.9517   -1.2838 O.3     1  UNL1       -0.3794
     13 H          25.7051   75.6344    0.7378 H       1  UNL1        0.2106
     14 H          24.8734   76.0853   -1.1792 H       1  UNL1        0.2105
     15 N          22.4922   74.8149    2.9290 N.ar    1  UNL1       -0.2551
     16 C          21.3092   74.7963    3.5674 C.ar    1  UNL1        0.3323
     17 N          21.2256   74.4356    4.8616 N.ar    1  UNL1       -0.2743
     18 C          22.3366   74.0937    5.5449 C.ar    1  UNL1        0.2626
     19 C          23.5893   74.1147    4.8867 C.ar    1  UNL1        0.0795
     20 C          23.6438   74.4754    3.5866 C.ar    1  UNL1        0.0869
     21 O          20.2983   75.1020    2.9647 O.2     1  UNL1       -0.2464
     22 O          22.2628   73.7720    6.7164 O.2     1  UNL1       -0.2670
     23 H          20.3634   74.4232    5.3050 H       1  UNL1        0.1734
     24 O          21.3801   72.1417   -3.6854 O.3     1  UNL1       -0.2703
     25 P          21.3877   72.7690   -5.1672 P.3     1  UNL1        0.2208
     26 O          22.7096   72.5425   -5.7918 O.2     1  UNL1       -0.5170
     27 O          21.0990   74.3507   -5.0827 O.3     1  UNL1       -0.4371
     28 O          20.2463   72.0634   -6.0560 O.3     1  UNL1       -0.2865
     29 C          19.2173   73.0342   -6.2557 C.3     1  UNL1        0.2611
     30 C          17.8670   72.4244   -5.8751 C.3     1  UNL1        0.1582
     31 C          17.6157   71.1838   -6.7395 C.3     1  UNL1        0.1625
     32 C          17.7618   71.5758   -8.2137 C.3     1  UNL1        0.1686
     33 C          19.1216   72.2469   -8.4185 C.3     1  UNL1        0.1760
     34 O          16.2957   70.6925   -6.4998 O.3     1  UNL1       -0.3801
     35 O          17.6768   70.4061   -9.0299 O.3     1  UNL1       -0.3794
     36 O          19.1993   73.4307   -7.6253 O.3     1  UNL1       -0.3263
     37 H          16.1808   69.9141   -7.0621 H       1  UNL1        0.2105
     38 H          17.7742   70.6976   -9.9475 H       1  UNL1        0.2105
     39 C          18.1923   70.7801   -4.1073 C.2     1  UNL1        0.2231
     40 C          18.2081   70.3872   -2.6521 C.3     1  UNL1        0.0946
     41 N          17.8830   72.0423   -4.4615 N.am    1  UNL1       -0.2994
     42 O          18.4573   69.9596   -4.9598 O.2     1  UNL1       -0.2751
     43 H          17.6706   72.6991   -3.7795 H       1  UNL1        0.1496
     44 C          19.2910   72.6132   -9.8944 C.3     1  UNL1        0.1693
     45 O          18.0449   73.0796  -10.4159 O.3     1  UNL1       -0.3794
     46 H          18.1951   73.2987  -11.3455 H       1  UNL1        0.2105
@<TRIPOS>BOND
     1    29    30    1
     2    29    28    1
     3    29    36    1
     4    30    31    1
     5    30    41    1
     6    31    32    1
     7    31    34    1
     8    32    33    1
     9    32    35    1
    10    33    44    1
    11    33    36    1
    12    44    45    1
    13    39    40    1
    14    39    41   am
    15    39    42    2
    16    41    43    1
    17    28    25    1
    18    34    37    1
    19    35    38    1
    20    45    46    1
    21    15    16   ar
    22    15    20   ar
    23    15     6    1
    24    16    17   ar
    25    16    21    2
    26    17    18   ar
    27    17    23    1
    28    18    19   ar
    29    18    22    2
    30    19    20   ar
    31     6     7    1
    32     6    11    1
    33     7     8    1
    34     7     9    1
    35     8    13    1
    36     9    10    1
    37     9    12    1
    38    10    11    1
    39    10     5    1
    40    12    14    1
    41     5     4    1
    42     4     1    1
    43     1     2    2
    44     1     3    1
    45     1    24    1
    46    24    25    1
    47    25    26    2
    48    25    27    1
@<TRIPOS>MOLECULE
UD1
 46 48 0 0 0
SMALL
GASTEIGER

@<TRIPOS>ATOM
      1 P          22.8440   71.8588   -3.3048 P.3     1  UNL1        0.2189
      2 O          23.4893   70.5296   -3.2313 O.2     1  UNL1       -0.5170
      3 O          23.8447   72.9029   -4.0125 O.3     1  UNL1       -0.4371
      4 O          22.5000   72.3707   -1.8174 O.3     1  UNL1       -0.3112
      5 C          21.5694   71.4390   -1.2639 C.3     1  UNL1        0.1811
      6 C          21.1185   73.3623    1.7403 C.3     1  UNL1        0.2383
      7 C          21.0893   74.4108    0.6000 C.3     1  UNL1        0.1895
      8 O          20.2508   75.5149    0.9423 O.3     1  UNL1       -0.3779
      9 C          20.4830   73.5985   -0.5738 C.3     1  UNL1        0.1713
     10 C          20.7365   72.1297   -0.1829 C.3     1  UNL1        0.1764
     11 O          21.4573   72.1344    1.0612 O.3     1  UNL1       -0.3308
     12 O          19.0823   73.8573   -0.6904 O.3     1  UNL1       -0.3794
     13 H          20.2764   76.1283    0.1949 H       1  UNL1        0.2106
     14 H          18.9872   74.8011   -0.8757 H       1  UNL1        0.2105
     15 N          22.1393   73.7021    2.7323 N.ar    1  UNL1       -0.2551
     16 C          23.3285   74.1809    2.3275 C.ar    1  UNL1        0.3323
     17 N          24.2845   74.5054    3.2179 N.ar    1  UNL1       -0.2743
     18 C          24.0655   74.3453    4.5387 C.ar    1  UNL1        0.2626
     19 C          22.8202   73.8366    4.9783 C.ar    1  UNL1        0.0795
     20 C          21.8770   73.5241    4.0639 C.ar    1  UNL1        0.0869
     21 O          23.5410   74.3310    1.1397 O.2     1  UNL1       -0.2464
     22 O          24.9309   74.6339    5.3444 O.2     1  UNL1       -0.2670
     23 H          25.1348   74.8539    2.9085 H       1  UNL1        0.1734
     24 O          21.4866   71.7497   -4.1619 O.3     1  UNL1       -0.2703
     25 P          21.5063   72.9620   -5.2199 P.3     1  UNL1        0.2208
     26 O          22.7625   72.9154   -6.0000 O.2     1  UNL1       -0.5170
     27 O          21.4157   74.3636   -4.4329 O.3     1  UNL1       -0.4371
     28 O          20.2502   72.8260   -6.2171 O.3     1  UNL1       -0.2865
     29 C          20.2698   71.4923   -6.7289 C.3     1  UNL1        0.2611
     30 C          20.2491   71.5377   -8.2578 C.3     1  UNL1        0.1582
     31 C          18.9882   72.2763   -8.7203 C.3     1  UNL1        0.1625
     32 C          17.7673   71.6158   -8.0711 C.3     1  UNL1        0.1686
     33 C          17.9739   71.5673   -6.5557 C.3     1  UNL1        0.1760
     34 O          18.8806   72.1956  -10.1427 O.3     1  UNL1       -0.3801
     35 O          16.5960   72.3772   -8.3710 O.3     1  UNL1       -0.3794
     36 O          19.1277   70.7846   -6.2513 O.3     1  UNL1       -0.3263
     37 H          18.0761   72.6722  -10.3896 H       1  UNL1        0.2105
     38 H          15.8532   71.9278   -7.9435 H       1  UNL1        0.2105
     39 C          21.3773   73.5634   -9.0049 C.2     1  UNL1        0.2231
     40 C          22.6001   74.2893   -9.5049 C.3     1  UNL1        0.0946
     41 N          21.4369   72.2435   -8.7430 N.am    1  UNL1       -0.2994
     42 O          20.3391   74.1674   -8.8389 O.2     1  UNL1       -0.2751
     43 H          22.2675   71.7598   -8.8760 H       1  UNL1        0.1496
     44 C          16.7456   70.9387   -5.8947 C.3     1  UNL1        0.1693
     45 O          16.2678   69.8616   -6.7032 O.3     1  UNL1       -0.3794
     46 H          15.4955   69.4944   -6.2523 H       1  UNL1        0.2105
@<TRIPOS>BOND
     1    29    30    1
     2    29    28    1
     3    29    36    1
     4    30    31    1
     5    30    41    1
     6    31    32    1
     7    31    34    1
     8    32    33    1
     9    32    35    1
    10    33    44    1
    11    33    36    1
    12    44    45    1
    13    39    40    1
    14    39    41   am
    15    39    42    2
    16    41    43    1
    17    28    25    1
    18    34    37    1
    19    35    38    1
    20    45    46    1
    21    15    16   ar
    22    15    20   ar
    23    15     6    1
    24    16    17   ar
    25    16    21    2
    26    17    18   ar
    27    17    23    1
    28    18    19   ar
    29    18    22    2
    30    19    20   ar
    31     6     7    1
    32     6    11    1
    33     7     8    1
    34     7     9    1
    35     8    13    1
    36     9    10    1
    37     9    12    1
    38    10    11    1
    39    10     5    1
    40    12    14    1
    41     5     4    1
    42     4     1    1
    43     1     2    2
    44     1     3    1
    45     1    24    1
    46    24    25    1
    47    25    26    2
    48    25    27    1
@<TRIPOS>MOLECULE
UD1
 46 48 0 0 0
SMALL
GASTEIGER

@<TRIPOS>ATOM
      1 P          22.1890   74.2093   -6.6750 P.3     1  UNL1        0.2189
      2 O          23.1493   75.3100   -6.9100 O.2     1  UNL1       -0.5170
      3 O          22.9213   72.7965   -6.9205 O.3     1  UNL1       -0.4371
      4 O          20.9488   74.3536   -7.6918 O.3     1  UNL1       -0.3112
      5 C          21.2066   73.4732   -8.7867 C.3     1  UNL1        0.1811
      6 C          18.5092   71.5078   -7.4495 C.3     1  UNL1        0.2383
      7 C          17.8143   72.7340   -8.0926 C.3     1  UNL1        0.1895
      8 O          16.5161   72.3897   -8.5777 O.3     1  UNL1       -0.3779
      9 C          18.7713   73.0729   -9.2650 C.3     1  UNL1        0.1713
     10 C          20.1050   72.4149   -8.8617 C.3     1  UNL1        0.1764
     11 O          19.9146   71.8150   -7.5690 O.3     1  UNL1       -0.3308
     12 O          18.2813   72.5174  -10.4873 O.3     1  UNL1       -0.3794
     13 H          16.1391   73.1925   -8.9634 H       1  UNL1        0.2106
     14 H          17.4203   72.9238  -10.6534 H       1  UNL1        0.2105
     15 N          18.1281   71.3731   -6.0430 N.ar    1  UNL1       -0.2551
     16 C          17.1545   70.5136   -5.6959 C.ar    1  UNL1        0.3323
     17 N          16.7861   70.3664   -4.4095 N.ar    1  UNL1       -0.2743
     18 C          17.3862   71.0909   -3.4436 C.ar    1  UNL1        0.2626
     19 C          18.4086   72.0038   -3.7958 C.ar    1  UNL1        0.0795
     20 C          18.7621   72.1278   -5.0931 C.ar    1  UNL1        0.0869
     21 O          16.6039   69.8530   -6.5556 O.2     1  UNL1       -0.2464
     22 O          17.0506   70.9621   -2.2808 O.2     1  UNL1       -0.2670
     23 H          16.0851   69.7382   -4.1765 H       1  UNL1        0.1734
     24 O          21.6517   74.2802   -5.1601 O.3     1  UNL1       -0.2703
     25 P          22.9332   74.1018   -4.2034 P.3     1  UNL1        0.2208
     26 O          23.9823   75.0669   -4.5994 O.2     1  UNL1       -0.5170
     27 O          23.5036   72.6027   -4.3433 O.3     1  UNL1       -0.4371
     28 O          22.5055   74.3713   -2.6754 O.3     1  UNL1       -0.2865
     29 C          23.3230   73.5285   -1.8613 C.3     1  UNL1        0.2611
     30 C          22.4279   72.6417   -0.9941 C.3     1  UNL1        0.1582
     31 C          21.5330   73.5313   -0.1239 C.3     1  UNL1        0.1625
     32 C          22.4203   74.5143    0.6471 C.3     1  UNL1        0.1686
     33 C          23.3140   75.2622   -0.3445 C.3     1  UNL1        0.1760
     34 O          20.8003   72.7197    0.7958 O.3     1  UNL1       -0.3801
     35 O          21.5994   75.4481    1.3512 O.3     1  UNL1       -0.3794
     36 O          24.1548   74.3351   -1.0300 O.3     1  UNL1       -0.3263
     37 H          20.2519   73.3185    1.3213 H       1  UNL1        0.2105
     38 H          22.1969   76.0472    1.8210 H       1  UNL1        0.2105
     39 C          21.6055   70.4599   -1.6996 C.2     1  UNL1        0.2231
     40 C          20.7476   69.5918   -2.5844 C.3     1  UNL1        0.0946
     41 N          21.5943   71.7980   -1.8530 N.am    1  UNL1       -0.2994
     42 O          22.3066   69.9536   -0.8497 O.2     1  UNL1       -0.2751
     43 H          21.0335   72.2034   -2.5332 H       1  UNL1        0.1496
     44 C          24.1815   76.2701    0.4124 C.3     1  UNL1        0.1693
     45 O          23.4932   77.5192    0.5017 O.3     1  UNL1       -0.3794
     46 H          24.0729   78.1242    0.9841 H       1  UNL1        0.2105
@<TRIPOS>BOND
     1    29    30    1
     2    29    28    1
     3    29    36    1
     4    30    31    1
     5    30    41    1
     6    31    32    1
     7    31    34    1
     8    32    33    1
     9    32    35    1
    10    33    44    1
    11    33    36    1
    12    44    45    1
    13    39    40    1
    14    39    41   am
    15    39    42    2
    16    41    43    1
    17    28    25    1
    18    34    37    1
    19    35    38    1
    20    45    46    1
    21    15    16   ar
    22    15    20   ar
    23    15     6    1
    24    16    17   ar
    25    16    21    2
    26    17    18   ar
    27    17    23    1
    28    18    19   ar
    29    18    22    2
    30    19    20   ar
    31     6     7    1
    32     6    11    1
    33     7     8    1
    34     7     9    1
    35     8    13    1
    36     9    10    1
    37     9    12    1
    38    10    11    1
    39    10     5    1
    40    12    14    1
    41     5     4    1
    42     4     1    1
    43     1     2    2
    44     1     3    1
    45     1    24    1
    46    24    25    1
    47    25    26    2
    48    25    27    1
@<TRIPOS>MOLECULE
UD1
 46 48 0 0 0
SMALL
GASTEIGER

@<TRIPOS>ATOM
      1 P          21.4116   72.7542   -5.7698 P.3     1  UNL1        0.2189
      2 O          20.7869   73.9975   -5.2672 O.2     1  UNL1       -0.5170
      3 O          22.9256   73.0601   -6.2246 O.3     1  UNL1       -0.4371
      4 O          20.5741   72.2052   -7.0307 O.3     1  UNL1       -0.3112
      5 C          19.4112   71.5620   -6.5069 C.3     1  UNL1        0.1811
      6 C          16.8481   73.2720   -8.3598 C.3     1  UNL1        0.2383
      7 C          18.0989   73.3430   -9.2713 C.3     1  UNL1        0.1895
      8 O          17.7267   73.3555  -10.6499 O.3     1  UNL1       -0.3779
      9 C          18.8400   72.0295   -8.9100 C.3     1  UNL1        0.1713
     10 C          18.2755   71.6492   -7.5276 C.3     1  UNL1        0.1764
     11 O          17.3504   72.6804   -7.1428 O.3     1  UNL1       -0.3308
     12 O          18.5528   71.0121   -9.8720 O.3     1  UNL1       -0.3794
     13 H          18.5466   73.4008  -11.1610 H       1  UNL1        0.2106
     14 H          18.8759   71.3343  -10.7240 H       1  UNL1        0.2105
     15 N          16.3168   74.6109   -8.1018 N.ar    1  UNL1       -0.2551
     16 C          15.0383   74.8910   -8.4091 C.ar    1  UNL1        0.3323
     17 N          14.5219   76.1127   -8.1791 N.ar    1  UNL1       -0.2743
     18 C          15.2873   77.0839   -7.6416 C.ar    1  UNL1        0.2626
     19 C          16.6366   76.8044   -7.3189 C.ar    1  UNL1        0.0795
     20 C          17.1276   75.5688   -7.5551 C.ar    1  UNL1        0.0869
     21 O          14.3353   74.0256   -8.8944 O.2     1  UNL1       -0.2464
     22 O          14.8228   78.1902   -7.4377 O.2     1  UNL1       -0.2670
     23 H          13.5963   76.2959   -8.4025 H       1  UNL1        0.1734
     24 O          21.4141   71.6455   -4.6038 O.3     1  UNL1       -0.2703
     25 P          22.6397   72.0035   -3.6245 P.3     1  UNL1        0.2208
     26 O          23.5611   72.9372   -4.3087 O.2     1  UNL1       -0.5170
     27 O          23.4313   70.6554   -3.2393 O.3     1  UNL1       -0.4371
     28 O          22.0741   72.6933   -2.2848 O.3     1  UNL1       -0.2865
     29 C          20.9098   71.9597   -1.9008 C.3     1  UNL1        0.2611
     30 C          19.8703   72.9254   -1.3290 C.3     1  UNL1        0.1582
     31 C          20.4731   73.6540   -0.1226 C.3     1  UNL1        0.1625
     32 C          21.0058   72.6100    0.8645 C.3     1  UNL1        0.1686
     33 C          21.9622   71.6699    0.1278 C.3     1  UNL1        0.1760
     34 O          19.4666   74.4464    0.5101 O.3     1  UNL1       -0.3801
     35 O          21.7019   73.2669    1.9254 O.3     1  UNL1       -0.3794
     36 O          21.2633   70.9916   -0.9153 O.3     1  UNL1       -0.3263
     37 H          19.8883   74.8861    1.2612 H       1  UNL1        0.2105
     38 H          22.0204   72.5746    2.5218 H       1  UNL1        0.2105
     39 C          18.2292   73.9363   -2.8186 C.2     1  UNL1        0.2231
     40 C          17.8411   74.9409   -3.8733 C.3     1  UNL1        0.0946
     41 N          19.4927   73.9014   -2.3532 N.am    1  UNL1       -0.2994
     42 O          17.4039   73.1586   -2.3892 O.2     1  UNL1       -0.2751
     43 H          20.1533   74.5235   -2.6968 H       1  UNL1        0.1496
     44 C          22.5251   70.6429    1.1124 C.3     1  UNL1        0.1693
     45 O          22.0911   69.3343    0.7365 O.3     1  UNL1       -0.3794
     46 H          22.4665   68.7192    1.3809 H       1  UNL1        0.2105
@<TRIPOS>BOND
     1    29    30    1
     2    29    28    1
     3    29    36    1
     4    30    31    1
     5    30    41    1
     6    31    32    1
     7    31    34    1
     8    32    33    1
     9    32    35    1
    10    33    44    1
    11    33    36    1
    12    44    45    1
    13    39    40    1
    14    39    41   am
    15    39    42    2
    16    41    43    1
    17    28    25    1
    18    34    37    1
    19    35    38    1
    20    45    46    1
    21    15    16   ar
    22    15    20   ar
    23    15     6    1
    24    16    17   ar
    25    16    21    2
    26    17    18   ar
    27    17    23    1
    28    18    19   ar
    29    18    22    2
    30    19    20   ar
    31     6     7    1
    32     6    11    1
    33     7     8    1
    34     7     9    1
    35     8    13    1
    36     9    10    1
    37     9    12    1
    38    10    11    1
    39    10     5    1
    40    12    14    1
    41     5     4    1
    42     4     1    1
    43     1     2    2
    44     1     3    1
    45     1    24    1
    46    24    25    1
    47    25    26    2
    48    25    27    1
@<TRIPOS>MOLECULE
UD1
 46 48 0 0 0
SMALL
GASTEIGER

@<TRIPOS>ATOM
      1 P          21.7735   71.0327   -2.6395 P.3     1  UNL1        0.2189
      2 O          21.6406   69.6378   -3.1143 O.2     1  UNL1       -0.5170
      3 O          22.7511   71.8452   -3.6278 O.3     1  UNL1       -0.4371
      4 O          22.3915   71.0363   -1.1526 O.3     1  UNL1       -0.3112
      5 C          21.3251   71.3678   -0.2619 C.3     1  UNL1        0.1811
      6 C          21.7413   74.1685    1.9540 C.3     1  UNL1        0.2383
      7 C          23.1570   73.9157    1.3777 C.3     1  UNL1        0.1895
      8 O          23.8992   75.1328    1.2930 O.3     1  UNL1       -0.3779
      9 C          22.8392   73.3619   -0.0356 C.3     1  UNL1        0.1713
     10 C          21.3874   72.8578    0.0776 C.3     1  UNL1        0.1764
     11 O          20.9643   73.0679    1.4356 O.3     1  UNL1       -0.3308
     12 O          22.9407   74.3989   -1.0139 O.3     1  UNL1       -0.3794
     13 H          24.7665   74.9072    0.9291 H       1  UNL1        0.2106
     14 H          23.8547   74.7125   -0.9946 H       1  UNL1        0.2105
     15 N          21.7634   74.1408    3.4169 N.ar    1  UNL1       -0.2551
     16 C          21.9252   72.9706    4.0588 C.ar    1  UNL1        0.3323
     17 N          21.9534   72.9158    5.4035 N.ar    1  UNL1       -0.2743
     18 C          21.8095   74.0409    6.1326 C.ar    1  UNL1        0.2626
     19 C          21.6324   75.2787    5.4698 C.ar    1  UNL1        0.0795
     20 C          21.6133   75.3057    4.1199 C.ar    1  UNL1        0.0869
     21 O          22.0564   71.9473    3.4151 O.2     1  UNL1       -0.2464
     22 O          21.8300   73.9919    7.3486 O.2     1  UNL1       -0.2670
     23 H          22.0758   72.0638    5.8499 H       1  UNL1        0.1734
     24 O          20.3252   71.7334   -2.6201 O.3     1  UNL1       -0.2703
     25 P          19.7015   71.5524   -4.0924 P.3     1  UNL1        0.2208
     26 O          18.3926   72.2385   -4.1613 O.2     1  UNL1       -0.5170
     27 O          19.5020   69.9851   -4.4025 O.3     1  UNL1       -0.4371
     28 O          20.6998   72.1906   -5.1817 O.3     1  UNL1       -0.2865
     29 C          19.9546   73.1754   -5.9000 C.3     1  UNL1        0.2611
     30 C          19.7133   72.6838   -7.3283 C.3     1  UNL1        0.1582
     31 C          21.0645   72.4274   -8.0052 C.3     1  UNL1        0.1625
     32 C          21.9198   73.6934   -7.8872 C.3     1  UNL1        0.1686
     33 C          21.9972   74.1072   -6.4161 C.3     1  UNL1        0.1760
     34 O          20.8575   72.1121   -9.3833 O.3     1  UNL1       -0.3801
     35 O          23.2345   73.4297   -8.3807 O.3     1  UNL1       -0.3794
     36 O          20.6883   74.3979   -5.9275 O.3     1  UNL1       -0.3263
     37 H          21.7310   71.9585   -9.7690 H       1  UNL1        0.2105
     38 H          23.7383   74.2506   -8.2873 H       1  UNL1        0.2105
     39 C          17.6035   71.4746   -7.4733 C.2     1  UNL1        0.2231
     40 C          16.8059   70.1960   -7.4379 C.3     1  UNL1        0.0946
     41 N          18.9381   71.4419   -7.2945 N.am    1  UNL1       -0.2994
     42 O          17.0436   72.5334   -7.6622 O.2     1  UNL1       -0.2751
     43 H          19.3864   70.5947   -7.1431 H       1  UNL1        0.1496
     44 C          22.8763   75.3525   -6.2834 C.3     1  UNL1        0.1693
     45 O          22.4992   76.0797   -5.1125 O.3     1  UNL1       -0.3794
     46 H          23.0756   76.8545   -5.0667 H       1  UNL1        0.2105
@<TRIPOS>BOND
     1    29    30    1
     2    29    28    1
     3    29    36    1
     4    30    31    1
     5    30    41    1
     6    31    32    1
     7    31    34    1
     8    32    33    1
     9    32    35    1
    10    33    44    1
    11    33    36    1
    12    44    45    1
    13    39    40    1
    14    39    41   am
    15    39    42    2
    16    41    43    1
    17    28    25    1
    18    34    37    1
    19    35    38    1
    20    45    46    1
    21    15    16   ar
    22    15    20   ar
    23    15     6    1
    24    16    17   ar
    25    16    21    2
    26    17    18   ar
    27    17    23    1
    28    18    19   ar
    29    18    22    2
    30    19    20   ar
    31     6     7    1
    32     6    11    1
    33     7     8    1
    34     7     9    1
    35     8    13    1
    36     9    10    1
    37     9    12    1
    38    10    11    1
    39    10     5    1
    40    12    14    1
    41     5     4    1
    42     4     1    1
    43     1     2    2
    44     1     3    1
    45     1    24    1
    46    24    25    1
    47    25    26    2
    48    25    27    1
@<TRIPOS>MOLECULE
UD1
 46 48 0 0 0
SMALL
GASTEIGER

@<TRIPOS>ATOM
      1 P          22.8795   72.2240   -3.2107 P.3     1  UNL1        0.2189
      2 O          23.8415   72.9402   -4.0769 O.2     1  UNL1       -0.5170
      3 O          23.3200   70.6808   -3.0808 O.3     1  UNL1       -0.4371
      4 O          21.4082   72.3083   -3.8593 O.3     1  UNL1       -0.3112
      5 C          20.4783   72.0130   -2.8160 C.3     1  UNL1        0.1811
      6 C          18.0804   71.2511   -5.3844 C.3     1  UNL1        0.2383
      7 C          18.1513   69.9638   -4.5253 C.3     1  UNL1        0.1895
      8 O          16.8983   69.2788   -4.5266 O.3     1  UNL1       -0.3779
      9 C          18.4714   70.5293   -3.1172 C.3     1  UNL1        0.1713
     10 C          19.0675   71.9219   -3.3996 C.3     1  UNL1        0.1764
     11 O          19.1173   72.0864   -4.8270 O.3     1  UNL1       -0.3308
     12 O          17.2779   70.6374   -2.3382 O.3     1  UNL1       -0.3794
     13 H          17.0093   68.4906   -3.9772 H       1  UNL1        0.2106
     14 H          16.9218   69.7435   -2.2473 H       1  UNL1        0.2105
     15 N          18.3573   70.9534   -6.7901 N.ar    1  UNL1       -0.2551
     16 C          17.3390   70.7028   -7.6313 C.ar    1  UNL1        0.3323
     17 N          17.5639   70.4299   -8.9302 N.ar    1  UNL1       -0.2743
     18 C          18.8240   70.3943   -9.4087 C.ar    1  UNL1        0.2626
     19 C          19.9057   70.6503   -8.5328 C.ar    1  UNL1        0.0795
     20 C          19.6513   70.9266   -7.2358 C.ar    1  UNL1        0.0869
     21 O          16.1969   70.7313   -7.2147 O.2     1  UNL1       -0.2464
     22 O          19.0288   70.1429  -10.5818 O.2     1  UNL1       -0.2670
     23 H          16.8171   70.2563   -9.5238 H       1  UNL1        0.1734
     24 O          22.8624   72.9028   -1.7520 O.3     1  UNL1       -0.2703
     25 P          23.3212   74.4329   -1.9458 P.3     1  UNL1        0.2208
     26 O          23.1369   75.1677   -0.6750 O.2     1  UNL1       -0.5170
     27 O          22.4288   75.1199   -3.0964 O.3     1  UNL1       -0.4371
     28 O          24.8724   74.4794   -2.3723 O.3     1  UNL1       -0.2865
     29 C          25.1912   75.8484   -2.6277 C.3     1  UNL1        0.2611
     30 C          25.7715   75.9774   -4.0372 C.3     1  UNL1        0.1582
     31 C          27.0243   75.1008   -4.1456 C.3     1  UNL1        0.1625
     32 C          27.9827   75.4729   -3.0094 C.3     1  UNL1        0.1686
     33 C          27.2362   75.3789   -1.6770 C.3     1  UNL1        0.1760
     34 O          27.6593   75.3269   -5.4055 O.3     1  UNL1       -0.3801
     35 O          29.0900   74.5698   -3.0032 O.3     1  UNL1       -0.3794
     36 O          26.1458   76.2995   -1.6693 O.3     1  UNL1       -0.3263
     37 H          28.4400   74.7567   -5.4311 H       1  UNL1        0.2105
     38 H          29.6664   74.8390   -2.2739 H       1  UNL1        0.2105
     39 C          24.1262   76.4428   -5.7723 C.2     1  UNL1        0.2231
     40 C          23.1030   75.9885   -6.7818 C.3     1  UNL1        0.0946
     41 N          24.7778   75.5366   -5.0183 N.am    1  UNL1       -0.2994
     42 O          24.3625   77.6245   -5.6382 O.2     1  UNL1       -0.2751
     43 H          24.5888   74.5909   -5.1253 H       1  UNL1        0.1496
     44 C          28.1937   75.7172   -0.5324 C.3     1  UNL1        0.1693
     45 O          27.5540   75.4538    0.7179 O.3     1  UNL1       -0.3794
     46 H          28.1896   75.6799    1.4105 H       1  UNL1        0.2105
@<TRIPOS>BOND
     1    29    30    1
     2    29    28    1
     3    29    36    1
     4    30    31    1
     5    30    41    1
     6    31    32    1
     7    31    34    1
     8    32    33    1
     9    32    35    1
    10    33    44    1
    11    33    36    1
    12    44    45    1
    13    39    40    1
    14    39    41   am
    15    39    42    2
    16    41    43    1
    17    28    25    1
    18    34    37    1
    19    35    38    1
    20    45    46    1
    21    15    16   ar
    22    15    20   ar
    23    15     6    1
    24    16    17   ar
    25    16    21    2
    26    17    18   ar
    27    17    23    1
    28    18    19   ar
    29    18    22    2
    30    19    20   ar
    31     6     7    1
    32     6    11    1
    33     7     8    1
    34     7     9    1
    35     8    13    1
    36     9    10    1
    37     9    12    1
    38    10    11    1
    39    10     5    1
    40    12    14    1
    41     5     4    1
    42     4     1    1
    43     1     2    2
    44     1     3    1
    45     1    24    1
    46    24    25    1
    47    25    26    2
    48    25    27    1
@<TRIPOS>MOLECULE
UD1
 46 48 0 0 0
SMALL
GASTEIGER

@<TRIPOS>ATOM
      1 P          22.2648   70.6340   -0.1344 P.3     1  UNL1        0.2189
      2 O          22.7359   71.8615   -0.8127 O.2     1  UNL1       -0.5170
      3 O          23.4748   69.5762   -0.0377 O.3     1  UNL1       -0.4371
      4 O          21.0540   69.9874   -0.9762 O.3     1  UNL1       -0.3112
      5 C          20.9265   70.7550   -2.1741 C.3     1  UNL1        0.1811
      6 C          18.3877   70.5999   -4.7153 C.3     1  UNL1        0.2383
      7 C          18.6760   69.1188   -4.3637 C.3     1  UNL1        0.1895
      8 O          17.5079   68.3157   -4.5368 O.3     1  UNL1       -0.3779
      9 C          19.0678   69.2101   -2.8660 C.3     1  UNL1        0.1713
     10 C          19.4839   70.6816   -2.6768 C.3     1  UNL1        0.1764
     11 O          19.3792   71.3258   -3.9579 O.3     1  UNL1       -0.3308
     12 O          17.9496   68.8888   -2.0358 O.3     1  UNL1       -0.3794
     13 H          17.7537   67.4099   -4.3032 H       1  UNL1        0.2106
     14 H          17.7003   67.9784   -2.2432 H       1  UNL1        0.2105
     15 N          18.5588   70.8361   -6.1493 N.ar    1  UNL1       -0.2551
     16 C          17.5064   70.7076   -6.9759 C.ar    1  UNL1        0.3323
     17 N          17.6337   70.9225   -8.2987 N.ar    1  UNL1       -0.2743
     18 C          18.8296   71.2636   -8.8197 C.ar    1  UNL1        0.2626
     19 C          19.9472   71.3965   -7.9617 C.ar    1  UNL1        0.0795
     20 C          19.7902   71.1803   -6.6381 C.ar    1  UNL1        0.0869
     21 O          16.4212   70.4006   -6.5211 O.2     1  UNL1       -0.2464
     22 O          18.9469   71.4535  -10.0162 O.2     1  UNL1       -0.2670
     23 H          16.8629   70.8300   -8.8797 H       1  UNL1        0.1734
     24 O          21.7526   71.0017    1.3459 O.3     1  UNL1       -0.2703
     25 P          21.8662   72.6001    1.4935 P.3     1  UNL1        0.2208
     26 O          20.6636   73.2358    0.9118 O.2     1  UNL1       -0.5170
     27 O          23.1765   73.1197    0.7154 O.3     1  UNL1       -0.4371
     28 O          21.9789   72.9898    3.0510 O.3     1  UNL1       -0.2865
     29 C          21.6986   74.3872    3.1499 C.3     1  UNL1        0.2611
     30 C          22.9100   75.1042    3.7486 C.3     1  UNL1        0.1582
     31 C          23.2096   74.5132    5.1308 C.3     1  UNL1        0.1625
     32 C          21.9331   74.5728    5.9765 C.3     1  UNL1        0.1686
     33 C          20.7960   73.8931    5.2109 C.3     1  UNL1        0.1760
     34 O          24.2423   75.2721    5.7625 O.3     1  UNL1       -0.3801
     35 O          22.1488   73.8951    7.2158 O.3     1  UNL1       -0.3794
     36 O          20.5596   74.5841    3.9849 O.3     1  UNL1       -0.3263
     37 H          24.3985   74.8666    6.6265 H       1  UNL1        0.2105
     38 H          21.3222   73.9558    7.7154 H       1  UNL1        0.2105
     39 C          24.8963   75.9530    2.6223 C.2     1  UNL1        0.2231
     40 C          26.0900   75.7625    1.7217 C.3     1  UNL1        0.0946
     41 N          24.0701   74.9195    2.8742 N.am    1  UNL1       -0.2994
     42 O          24.6790   77.0372    3.1198 O.2     1  UNL1       -0.2751
     43 H          24.2436   74.0518    2.4760 H       1  UNL1        0.1496
     44 C          19.5240   73.9184    6.0609 C.3     1  UNL1        0.1693
     45 O          18.4663   73.2657    5.3557 O.3     1  UNL1       -0.3794
     46 H          17.6854   73.3040    5.9244 H       1  UNL1        0.2105
@<TRIPOS>BOND
     1    29    30    1
     2    29    28    1
     3    29    36    1
     4    30    31    1
     5    30    41    1
     6    31    32    1
     7    31    34    1
     8    32    33    1
     9    32    35    1
    10    33    44    1
    11    33    36    1
    12    44    45    1
    13    39    40    1
    14    39    41   am
    15    39    42    2
    16    41    43    1
    17    28    25    1
    18    34    37    1
    19    35    38    1
    20    45    46    1
    21    15    16   ar
    22    15    20   ar
    23    15     6    1
    24    16    17   ar
    25    16    21    2
    26    17    18   ar
    27    17    23    1
    28    18    19   ar
    29    18    22    2
    30    19    20   ar
    31     6     7    1
    32     6    11    1
    33     7     8    1
    34     7     9    1
    35     8    13    1
    36     9    10    1
    37     9    12    1
    38    10    11    1
    39    10     5    1
    40    12    14    1
    41     5     4    1
    42     4     1    1
    43     1     2    2
    44     1     3    1
    45     1    24    1
    46    24    25    1
    47    25    26    2
    48    25    27    1
@<TRIPOS>MOLECULE
UD1
 46 48 0 0 0
SMALL
GASTEIGER

@<TRIPOS>ATOM
      1 P          22.3120   74.1376   -7.5693 P.3     1  UNL1        0.2189
      2 O          21.2626   75.1753   -7.6731 O.2     1  UNL1       -0.5170
      3 O          23.5388   74.5159   -8.5411 O.3     1  UNL1       -0.4371
      4 O          21.7021   72.7129   -8.0064 O.3     1  UNL1       -0.3112
      5 C          21.0446   72.9108   -9.2590 C.3     1  UNL1        0.1811
      6 C          18.3137   71.1922   -7.6728 C.3     1  UNL1        0.2383
      7 C          17.9111   72.6875   -7.6259 C.3     1  UNL1        0.1895
      8 O          16.4920   72.8367   -7.6821 O.3     1  UNL1       -0.3779
      9 C          18.5774   73.2447   -8.9107 C.3     1  UNL1        0.1713
     10 C          19.6807   72.2191   -9.2351 C.3     1  UNL1        0.1764
     11 O          19.6569   71.2207   -8.2007 O.3     1  UNL1       -0.3308
     12 O          17.6266   73.3198   -9.9751 O.3     1  UNL1       -0.3794
     13 H          16.3085   73.7858   -7.6486 H       1  UNL1        0.2106
     14 H          16.9335   73.9291   -9.6879 H       1  UNL1        0.2105
     15 N          18.2987   70.6079   -6.3312 N.ar    1  UNL1       -0.2551
     16 C          17.1964   69.9759   -5.8921 C.ar    1  UNL1        0.3323
     17 N          17.1557   69.4256   -4.6642 N.ar    1  UNL1       -0.2743
     18 C          18.2246   69.5087   -3.8466 C.ar    1  UNL1        0.2626
     19 C          19.3894   70.1765   -4.2940 C.ar    1  UNL1        0.0795
     20 C          19.4050   70.7147   -5.5322 C.ar    1  UNL1        0.0869
     21 O          16.2243   69.8926   -6.6179 O.2     1  UNL1       -0.2464
     22 O          18.1872   69.0158   -2.7344 O.2     1  UNL1       -0.2670
     23 H          16.3539   68.9693   -4.3656 H       1  UNL1        0.1734
     24 O          22.8355   74.0538   -6.0502 O.3     1  UNL1       -0.2703
     25 P          22.5684   75.4950   -5.3862 P.3     1  UNL1        0.2208
     26 O          21.1211   75.6574   -5.1260 O.2     1  UNL1       -0.5170
     27 O          23.0652   76.6502   -6.3917 O.3     1  UNL1       -0.4371
     28 O          23.3787   75.6071   -4.0001 O.3     1  UNL1       -0.2865
     29 C          23.8143   74.2879   -3.6667 C.3     1  UNL1        0.2611
     30 C          23.2565   73.9034   -2.2952 C.3     1  UNL1        0.1582
     31 C          23.7472   74.9148   -1.2531 C.3     1  UNL1        0.1625
     32 C          25.2749   75.0008   -1.3349 C.3     1  UNL1        0.1686
     33 C          25.6803   75.3055   -2.7786 C.3     1  UNL1        0.1760
     34 O          23.3578   74.4843    0.0525 O.3     1  UNL1       -0.3801
     35 O          25.7417   76.0427   -0.4759 O.3     1  UNL1       -0.3794
     36 O          25.2394   74.2531   -3.6356 O.3     1  UNL1       -0.3263
     37 H          23.6857   75.1479    0.6749 H       1  UNL1        0.2105
     38 H          26.7057   76.0626   -0.5585 H       1  UNL1        0.2105
     39 C          21.0908   72.9337   -1.7440 C.2     1  UNL1        0.2231
     40 C          19.5842   72.9473   -1.7912 C.3     1  UNL1        0.0946
     41 N          21.7929   73.9165   -2.3403 N.am    1  UNL1       -0.2994
     42 O          21.6713   72.0374   -1.1697 O.2     1  UNL1       -0.2751
     43 H          21.3286   74.6337   -2.8002 H       1  UNL1        0.1496
     44 C          27.2032   75.4257   -2.8648 C.3     1  UNL1        0.1693
     45 O          27.5879   76.7833   -2.6393 O.3     1  UNL1       -0.3794
     46 H          28.5521   76.8151   -2.7024 H       1  UNL1        0.2105
@<TRIPOS>BOND
     1    29    30    1
     2    29    28    1
     3    29    36    1
     4    30    31    1
     5    30    41    1
     6    31    32    1
     7    31    34    1
     8    32    33    1
     9    32    35    1
    10    33    44    1
    11    33    36    1
    12    44    45    1
    13    39    40    1
    14    39    41   am
    15    39    42    2
    16    41    43    1
    17    28    25    1
    18    34    37    1
    19    35    38    1
    20    45    46    1
    21    15    16   ar
    22    15    20   ar
    23    15     6    1
    24    16    17   ar
    25    16    21    2
    26    17    18   ar
    27    17    23    1
    28    18    19   ar
    29    18    22    2
    30    19    20   ar
    31     6     7    1
    32     6    11    1
    33     7     8    1
    34     7     9    1
    35     8    13    1
    36     9    10    1
    37     9    12    1
    38    10    11    1
    39    10     5    1
    40    12    14    1
    41     5     4    1
    42     4     1    1
    43     1     2    2
    44     1     3    1
    45     1    24    1
    46    24    25    1
    47    25    26    2
    48    25    27    1
@<TRIPOS>MOLECULE
UD1
 46 48 0 0 0
SMALL
GASTEIGER

@<TRIPOS>ATOM
      1 P          20.0614   70.1462   -2.9110 P.3     1  UNL1        0.2189
      2 O          18.8701   69.7408   -2.1332 O.2     1  UNL1       -0.5170
      3 O          21.2791   69.1429   -2.5897 O.3     1  UNL1       -0.4371
      4 O          20.4820   71.6465   -2.5047 O.3     1  UNL1       -0.3112
      5 C          20.3867   71.7321   -1.0820 C.3     1  UNL1        0.1811
      6 C          22.7387   72.2387    1.5898 C.3     1  UNL1        0.2383
      7 C          22.4873   70.7100    1.5786 C.3     1  UNL1        0.1895
      8 O          23.6460   69.9983    2.0147 O.3     1  UNL1       -0.3779
      9 C          22.2027   70.4378    0.0786 C.3     1  UNL1        0.1713
     10 C          21.7903   71.8135   -0.4799 C.3     1  UNL1        0.1764
     11 O          21.7984   72.7426    0.6174 O.3     1  UNL1       -0.3308
     12 O          23.3797   69.9578   -0.5749 O.3     1  UNL1       -0.3794
     13 H          23.4243   69.0572    1.9852 H       1  UNL1        0.2106
     14 H          23.6204   69.1277   -0.1424 H       1  UNL1        0.2105
     15 N          22.4639   72.8005    2.9128 N.ar    1  UNL1       -0.2551
     16 C          21.2287   72.7037    3.4344 C.ar    1  UNL1        0.3323
     17 N          20.9484   73.2079    4.6507 N.ar    1  UNL1       -0.2743
     18 C          21.9072   73.8304    5.3656 C.ar    1  UNL1        0.2626
     19 C          23.2104   73.9446    4.8260 C.ar    1  UNL1        0.0795
     20 C          23.4655   73.4252    3.6059 C.ar    1  UNL1        0.0869
     21 O          20.3533   72.1451    2.8017 O.2     1  UNL1       -0.2464
     22 O          21.6536   74.2908    6.4634 O.2     1  UNL1       -0.2670
     23 H          20.0530   73.1249    5.0135 H       1  UNL1        0.1734
     24 O          19.7204   70.0917   -4.4825 O.3     1  UNL1       -0.2703
     25 P          18.4683   71.0739   -4.7208 P.3     1  UNL1        0.2208
     26 O          18.5461   72.2101   -3.7764 O.2     1  UNL1       -0.5170
     27 O          17.0973   70.2662   -4.4755 O.3     1  UNL1       -0.4371
     28 O          18.4997   71.6287   -6.2314 O.3     1  UNL1       -0.2865
     29 C          19.8086   71.3684   -6.7414 C.3     1  UNL1        0.2611
     30 C          20.4507   72.6855   -7.1806 C.3     1  UNL1        0.1582
     31 C          19.5718   73.3384   -8.2534 C.3     1  UNL1        0.1625
     32 C          19.3332   72.3232   -9.3761 C.3     1  UNL1        0.1686
     33 C          18.7725   71.0342   -8.7715 C.3     1  UNL1        0.1760
     34 O          20.2334   74.4910   -8.7781 O.3     1  UNL1       -0.3801
     35 O          18.3982   72.8590  -10.3142 O.3     1  UNL1       -0.3794
     36 O          19.7158   70.4817   -7.8543 O.3     1  UNL1       -0.3263
     37 H          19.6467   74.8694   -9.4474 H       1  UNL1        0.2105
     38 H          18.2766   72.1889  -11.0018 H       1  UNL1        0.2105
     39 C          21.7354   73.6840   -5.3676 C.2     1  UNL1        0.2231
     40 C          21.8537   74.6068   -4.1816 C.3     1  UNL1        0.0946
     41 N          20.5662   73.5822   -6.0286 N.am    1  UNL1       -0.2994
     42 O          22.6928   73.0324   -5.7267 O.2     1  UNL1       -0.2751
     43 H          19.7998   74.1034   -5.7413 H       1  UNL1        0.1496
     44 C          18.5001   70.0248   -9.8887 C.3     1  UNL1        0.1693
     45 O          19.4969   70.1569  -10.9041 O.3     1  UNL1       -0.3794
     46 H          19.2887   69.5051  -11.5870 H       1  UNL1        0.2105
@<TRIPOS>BOND
     1    29    30    1
     2    29    28    1
     3    29    36    1
     4    30    31    1
     5    30    41    1
     6    31    32    1
     7    31    34    1
     8    32    33    1
     9    32    35    1
    10    33    44    1
    11    33    36    1
    12    44    45    1
    13    39    40    1
    14    39    41   am
    15    39    42    2
    16    41    43    1
    17    28    25    1
    18    34    37    1
    19    35    38    1
    20    45    46    1
    21    15    16   ar
    22    15    20   ar
    23    15     6    1
    24    16    17   ar
    25    16    21    2
    26    17    18   ar
    27    17    23    1
    28    18    19   ar
    29    18    22    2
    30    19    20   ar
    31     6     7    1
    32     6    11    1
    33     7     8    1
    34     7     9    1
    35     8    13    1
    36     9    10    1
    37     9    12    1
    38    10    11    1
    39    10     5    1
    40    12    14    1
    41     5     4    1
    42     4     1    1
    43     1     2    2
    44     1     3    1
    45     1    24    1
    46    24    25    1
    47    25    26    2
    48    25    27    1
@<TRIPOS>MOLECULE
UD1
 46 48 0 0 0
SMALL
GASTEIGER

@<TRIPOS>ATOM
      1 P          21.7518   70.8431   -2.9364 P.3     1  UNL1        0.2189
      2 O          21.3740   69.4278   -2.7288 O.2     1  UNL1       -0.5170
      3 O          23.3271   70.9368   -3.2561 O.3     1  UNL1       -0.4371
      4 O          21.4245   71.6862   -1.6041 O.3     1  UNL1       -0.3112
      5 C          22.6788   72.0312   -1.0141 C.3     1  UNL1        0.1811
      6 C          23.8953   75.3377   -1.7317 C.3     1  UNL1        0.2383
      7 C          22.6245   75.1933   -2.6061 C.3     1  UNL1        0.1895
      8 O          21.9844   76.4565   -2.7899 O.3     1  UNL1       -0.3779
      9 C          21.7450   74.2467   -1.7485 C.3     1  UNL1        0.1713
     10 C          22.7501   73.5459   -0.8142 C.3     1  UNL1        0.1764
     11 O          24.0618   74.0233   -1.1586 O.3     1  UNL1       -0.3308
     12 O          20.7904   74.9971   -0.9945 O.3     1  UNL1       -0.3794
     13 H          21.2049   76.2981   -3.3403 H       1  UNL1        0.2106
     14 H          20.2303   75.4582   -1.6330 H       1  UNL1        0.2105
     15 N          25.0532   75.6932   -2.5528 N.ar    1  UNL1       -0.2551
     16 C          25.4237   74.8902   -3.5654 C.ar    1  UNL1        0.3323
     17 N          26.4822   75.1943   -4.3395 N.ar    1  UNL1       -0.2743
     18 C          27.1977   76.3125   -4.1035 C.ar    1  UNL1        0.2626
     19 C          26.8223   77.1637   -3.0370 C.ar    1  UNL1        0.0795
     20 C          25.7531   76.8374   -2.2795 C.ar    1  UNL1        0.0869
     21 O          24.7884   73.8782   -3.7908 O.2     1  UNL1       -0.2464
     22 O          28.1578   76.5860   -4.7998 O.2     1  UNL1       -0.2670
     23 H          26.7324   74.6061   -5.0686 H       1  UNL1        0.1734
     24 O          20.9157   71.4461   -4.1717 O.3     1  UNL1       -0.2703
     25 P          19.4383   70.8142   -4.0858 P.3     1  UNL1        0.2208
     26 O          18.9778   70.8261   -2.6799 O.2     1  UNL1       -0.5170
     27 O          19.4702   69.2980   -4.6264 O.3     1  UNL1       -0.4371
     28 O          18.4282   71.6831   -4.9886 O.3     1  UNL1       -0.2865
     29 C          17.2305   70.9163   -5.1256 C.3     1  UNL1        0.2611
     30 C          16.8131   70.8902   -6.5970 C.3     1  UNL1        0.1582
     31 C          16.5935   72.3278   -7.0813 C.3     1  UNL1        0.1625
     32 C          15.6052   73.0182   -6.1353 C.3     1  UNL1        0.1686
     33 C          16.1155   72.8864   -4.6988 C.3     1  UNL1        0.1760
     34 O          16.0602   72.3104   -8.4067 O.3     1  UNL1       -0.3801
     35 O          15.4987   74.4004   -6.4812 O.3     1  UNL1       -0.3794
     36 O          16.1970   71.5074   -4.3408 O.3     1  UNL1       -0.3263
     37 H          15.9384   73.2327   -8.6710 H       1  UNL1        0.2105
     38 H          14.8689   74.7960   -5.8619 H       1  UNL1        0.2105
     39 C          18.8145   71.0171   -7.9799 C.2     1  UNL1        0.2231
     40 C          19.8991   70.3675   -8.8008 C.3     1  UNL1        0.0946
     41 N          17.8672   70.2596   -7.3942 N.am    1  UNL1       -0.2994
     42 O          18.7942   72.2221   -7.8471 O.2     1  UNL1       -0.2751
     43 H          17.8831   69.2952   -7.5005 H       1  UNL1        0.1496
     44 C          15.1519   73.6009   -3.7491 C.3     1  UNL1        0.1693
     45 O          13.8133   73.4508   -4.2262 O.3     1  UNL1       -0.3794
     46 H          13.2398   73.9145   -3.6011 H       1  UNL1        0.2105
@<TRIPOS>BOND
     1    29    30    1
     2    29    28    1
     3    29    36    1
     4    30    31    1
     5    30    41    1
     6    31    32    1
     7    31    34    1
     8    32    33    1
     9    32    35    1
    10    33    44    1
    11    33    36    1
    12    44    45    1
    13    39    40    1
    14    39    41   am
    15    39    42    2
    16    41    43    1
    17    28    25    1
    18    34    37    1
    19    35    38    1
    20    45    46    1
    21    15    16   ar
    22    15    20   ar
    23    15     6    1
    24    16    17   ar
    25    16    21    2
    26    17    18   ar
    27    17    23    1
    28    18    19   ar
    29    18    22    2
    30    19    20   ar
    31     6     7    1
    32     6    11    1
    33     7     8    1
    34     7     9    1
    35     8    13    1
    36     9    10    1
    37     9    12    1
    38    10    11    1
    39    10     5    1
    40    12    14    1
    41     5     4    1
    42     4     1    1
    43     1     2    2
    44     1     3    1
    45     1    24    1
    46    24    25    1
    47    25    26    2
    48    25    27    1
@<TRIPOS>MOLECULE
UD1
 46 48 0 0 0
SMALL
GASTEIGER

@<TRIPOS>ATOM
      1 P          20.4703   70.4843   -2.4768 P.3     1  UNL1        0.2189
      2 O          21.7961   69.9122   -2.7987 O.2     1  UNL1       -0.5170
      3 O          19.4489   69.2963   -2.1052 O.3     1  UNL1       -0.4371
      4 O          19.9110   71.2922   -3.7525 O.3     1  UNL1       -0.3112
      5 C          21.0212   71.9885   -4.3207 C.3     1  UNL1        0.1811
      6 C          19.5400   72.4837   -7.5592 C.3     1  UNL1        0.2383
      7 C          20.4686   73.7086   -7.3657 C.3     1  UNL1        0.1895
      8 O          20.9781   74.1668   -8.6186 O.3     1  UNL1       -0.3779
      9 C          21.6042   73.1209   -6.4881 C.3     1  UNL1        0.1713
     10 C          20.9718   71.8716   -5.8449 C.3     1  UNL1        0.1764
     11 O          19.6050   71.8063   -6.2863 O.3     1  UNL1       -0.3308
     12 O          22.7265   72.7615   -7.2968 O.3     1  UNL1       -0.3794
     13 H          21.5453   74.9270   -8.4292 H       1  UNL1        0.2106
     14 H          23.0391   73.5735   -7.7175 H       1  UNL1        0.2105
     15 N          18.1703   72.9107   -7.8474 N.ar    1  UNL1       -0.2551
     16 C          17.8093   73.1818   -9.1137 C.ar    1  UNL1        0.3323
     17 N          16.5553   73.5726   -9.4084 N.ar    1  UNL1       -0.2743
     18 C          15.6380   73.7080   -8.4295 C.ar    1  UNL1        0.2626
     19 C          16.0062   73.4317   -7.0913 C.ar    1  UNL1        0.0795
     20 C          17.2694   73.0362   -6.8244 C.ar    1  UNL1        0.0869
     21 O          18.6253   73.0642  -10.0075 O.2     1  UNL1       -0.2464
     22 O          14.5053   74.0660   -8.6942 O.2     1  UNL1       -0.2670
     23 H          16.3110   73.7594  -10.3280 H       1  UNL1        0.1734
     24 O          20.6077   71.4863   -1.2254 O.3     1  UNL1       -0.2703
     25 P          21.8750   70.9883   -0.3680 P.3     1  UNL1        0.2208
     26 O          23.0023   70.6938   -1.2797 O.2     1  UNL1       -0.5170
     27 O          21.4826   69.6561    0.4467 O.3     1  UNL1       -0.4371
     28 O          22.3099   72.1406    0.6681 O.3     1  UNL1       -0.2865
     29 C          21.1969   73.0278    0.7924 C.3     1  UNL1        0.2611
     30 C          21.6015   74.4178    0.2981 C.3     1  UNL1        0.1582
     31 C          22.7885   74.9191    1.1283 C.3     1  UNL1        0.1625
     32 C          22.4177   74.8374    2.6129 C.3     1  UNL1        0.1686
     33 C          21.9544   73.4147    2.9332 C.3     1  UNL1        0.1760
     34 O          23.0799   76.2733    0.7780 O.3     1  UNL1       -0.3801
     35 O          23.5592   75.1604    3.4092 O.3     1  UNL1       -0.3794
     36 O          20.7977   73.0986    2.1595 O.3     1  UNL1       -0.3263
     37 H          23.8309   76.5473    1.3223 H       1  UNL1        0.2105
     38 H          23.2823   75.0961    4.3342 H       1  UNL1        0.2105
     39 C          23.2844   74.2264   -1.4527 C.2     1  UNL1        0.2231
     40 C          23.6800   74.1503   -2.9053 C.3     1  UNL1        0.0946
     41 N          21.9863   74.3432   -1.1128 N.am    1  UNL1       -0.2994
     42 O          24.1349   74.1833   -0.5896 O.2     1  UNL1       -0.2751
     43 H          21.3055   74.3780   -1.8033 H       1  UNL1        0.1496
     44 C          21.6124   73.3139    4.4212 C.3     1  UNL1        0.1693
     45 O          22.0906   72.0700    4.9371 O.3     1  UNL1       -0.3794
     46 H          21.8550   72.0467    5.8744 H       1  UNL1        0.2105
@<TRIPOS>BOND
     1    29    30    1
     2    29    28    1
     3    29    36    1
     4    30    31    1
     5    30    41    1
     6    31    32    1
     7    31    34    1
     8    32    33    1
     9    32    35    1
    10    33    44    1
    11    33    36    1
    12    44    45    1
    13    39    40    1
    14    39    41   am
    15    39    42    2
    16    41    43    1
    17    28    25    1
    18    34    37    1
    19    35    38    1
    20    45    46    1
    21    15    16   ar
    22    15    20   ar
    23    15     6    1
    24    16    17   ar
    25    16    21    2
    26    17    18   ar
    27    17    23    1
    28    18    19   ar
    29    18    22    2
    30    19    20   ar
    31     6     7    1
    32     6    11    1
    33     7     8    1
    34     7     9    1
    35     8    13    1
    36     9    10    1
    37     9    12    1
    38    10    11    1
    39    10     5    1
    40    12    14    1
    41     5     4    1
    42     4     1    1
    43     1     2    2
    44     1     3    1
    45     1    24    1
    46    24    25    1
    47    25    26    2
    48    25    27    1
@<TRIPOS>MOLECULE
UD1
 46 48 0 0 0
SMALL
GASTEIGER

@<TRIPOS>ATOM
      1 P          18.9496   70.1461   -3.2585 P.3     1  UNL1        0.2189
      2 O          18.2108   71.4047   -3.0161 O.2     1  UNL1       -0.5170
      3 O          18.3853   68.9962   -2.2829 O.3     1  UNL1       -0.4371
      4 O          20.5154   70.3782   -2.9632 O.3     1  UNL1       -0.3112
      5 C          20.6472   70.5672   -1.5535 C.3     1  UNL1        0.1811
      6 C          21.6192   73.3221    0.5424 C.3     1  UNL1        0.2383
      7 C          22.9319   72.8806   -0.1518 C.3     1  UNL1        0.1895
      8 O          23.8118   73.9903   -0.3344 O.3     1  UNL1       -0.3779
      9 C          22.4170   72.3523   -1.5160 C.3     1  UNL1        0.1713
     10 C          20.9297   72.0414   -1.2598 C.3     1  UNL1        0.1764
     11 O          20.6640   72.3237    0.1247 O.3     1  UNL1       -0.3308
     12 O          22.5588   73.3535   -2.5261 O.3     1  UNL1       -0.3794
     13 H          24.6061   73.6496   -0.7687 H       1  UNL1        0.2106
     14 H          23.5031   73.5467   -2.5971 H       1  UNL1        0.2105
     15 N          21.7727   73.3126    1.9977 N.ar    1  UNL1       -0.2551
     16 C          21.8554   72.1408    2.6514 C.ar    1  UNL1        0.3323
     17 N          22.0008   72.1020    3.9891 N.ar    1  UNL1       -0.2743
     18 C          22.0568   73.2463    4.6999 C.ar    1  UNL1        0.2626
     19 C          21.9650   74.4869    4.0251 C.ar    1  UNL1        0.0795
     20 C          21.8249   74.4969    2.6821 C.ar    1  UNL1        0.0869
     21 O          21.8065   71.1001    2.0242 O.2     1  UNL1       -0.2464
     22 O          22.1835   73.2124    5.9100 O.2     1  UNL1       -0.2670
     23 H          22.0636   71.2479    4.4437 H       1  UNL1        0.1734
     24 O          18.7537   69.6952   -4.7905 O.3     1  UNL1       -0.2703
     25 P          17.2800   70.1692   -5.2298 P.3     1  UNL1        0.2208
     26 O          16.5544   70.6831   -4.0473 O.2     1  UNL1       -0.5170
     27 O          16.4764   68.9198   -5.8505 O.3     1  UNL1       -0.4371
     28 O          17.3966   71.3331   -6.3353 O.3     1  UNL1       -0.2865
     29 C          18.7455   71.8025   -6.3024 C.3     1  UNL1        0.2611
     30 C          18.7680   73.2977   -6.6249 C.3     1  UNL1        0.1582
     31 C          18.1511   73.5210   -8.0102 C.3     1  UNL1        0.1625
     32 C          18.8764   72.6252   -9.0199 C.3     1  UNL1        0.1686
     33 C          18.8431   71.1800   -8.5181 C.3     1  UNL1        0.1760
     34 O          18.3014   74.8912   -8.3862 O.3     1  UNL1       -0.3801
     35 O          18.2228   72.7075  -10.2878 O.3     1  UNL1       -0.3794
     36 O          19.5192   71.0892   -7.2647 O.3     1  UNL1       -0.3263
     37 H          17.9004   74.9865   -9.2610 H       1  UNL1        0.2105
     38 H          18.7101   72.1294  -10.8918 H       1  UNL1        0.2105
     39 C          16.6896   74.2913   -5.8330 C.2     1  UNL1        0.2231
     40 C          15.8924   75.0430   -4.7978 C.3     1  UNL1        0.0946
     41 N          17.9930   74.0275   -5.6193 N.am    1  UNL1       -0.2994
     42 O          16.1577   73.9244   -6.8590 O.2     1  UNL1       -0.2751
     43 H          18.4190   74.3212   -4.7984 H       1  UNL1        0.1496
     44 C          19.5368   70.2720   -9.5356 C.3     1  UNL1        0.1693
     45 O          18.6771   70.0709  -10.6593 O.3     1  UNL1       -0.3794
     46 H          19.1507   69.4948  -11.2744 H       1  UNL1        0.2105
@<TRIPOS>BOND
     1    29    30    1
     2    29    28    1
     3    29    36    1
     4    30    31    1
     5    30    41    1
     6    31    32    1
     7    31    34    1
     8    32    33    1
     9    32    35    1
    10    33    44    1
    11    33    36    1
    12    44    45    1
    13    39    40    1
    14    39    41   am
    15    39    42    2
    16    41    43    1
    17    28    25    1
    18    34    37    1
    19    35    38    1
    20    45    46    1
    21    15    16   ar
    22    15    20   ar
    23    15     6    1
    24    16    17   ar
    25    16    21    2
    26    17    18   ar
    27    17    23    1
    28    18    19   ar
    29    18    22    2
    30    19    20   ar
    31     6     7    1
    32     6    11    1
    33     7     8    1
    34     7     9    1
    35     8    13    1
    36     9    10    1
    37     9    12    1
    38    10    11    1
    39    10     5    1
    40    12    14    1
    41     5     4    1
    42     4     1    1
    43     1     2    2
    44     1     3    1
    45     1    24    1
    46    24    25    1
    47    25    26    2
    48    25    27    1
@<TRIPOS>MOLECULE
UD1
 46 48 0 0 0
SMALL
GASTEIGER

@<TRIPOS>ATOM
      1 P          22.7318   73.5396   -4.5394 P.3     1  UNL1        0.2189
      2 O          23.9102   72.7129   -4.1981 O.2     1  UNL1       -0.5170
      3 O          23.1003   74.5210   -5.7615 O.3     1  UNL1       -0.4371
      4 O          22.3032   74.4166   -3.2587 O.3     1  UNL1       -0.3112
      5 C          21.4181   73.6087   -2.4813 C.3     1  UNL1        0.1811
      6 C          22.1451   72.3474    0.8062 C.3     1  UNL1        0.2383
      7 C          21.2678   71.2493    0.1544 C.3     1  UNL1        0.1895
      8 O          21.6096   69.9570    0.6567 O.3     1  UNL1       -0.3779
      9 C          21.6452   71.3781   -1.3443 C.3     1  UNL1        0.1713
     10 C          22.2248   72.8008   -1.4635 C.3     1  UNL1        0.1764
     11 O          22.1292   73.4138   -0.1665 O.3     1  UNL1       -0.3308
     12 O          22.6254   70.4002   -1.6993 O.3     1  UNL1       -0.3794
     13 H          21.0300   69.3219    0.2136 H       1  UNL1        0.2106
     14 H          22.2239   69.5344   -1.5469 H       1  UNL1        0.2105
     15 N          21.5623   72.7945    2.0719 N.ar    1  UNL1       -0.2551
     16 C          21.9418   72.2123    3.2227 C.ar    1  UNL1        0.3323
     17 N          21.4253   72.6059    4.4019 N.ar    1  UNL1       -0.2743
     18 C          20.5058   73.5911    4.4460 C.ar    1  UNL1        0.2626
     19 C          20.0928   74.2085    3.2414 C.ar    1  UNL1        0.0795
     20 C          20.6311   73.7978    2.0731 C.ar    1  UNL1        0.0869
     21 O          22.7702   71.3225    3.1992 O.2     1  UNL1       -0.2464
     22 O          20.0347   73.9445    5.5111 O.2     1  UNL1       -0.2670
     23 H          21.7141   72.1782    5.2227 H       1  UNL1        0.1734
     24 O          21.5108   72.5831   -4.9674 O.3     1  UNL1       -0.2703
     25 P          21.0672   73.0300   -6.4482 P.3     1  UNL1        0.2208
     26 O          22.1438   72.6973   -7.4070 O.2     1  UNL1       -0.5170
     27 O          20.7995   74.6174   -6.4729 O.3     1  UNL1       -0.4371
     28 O          19.7200   72.2535   -6.8635 O.3     1  UNL1       -0.2865
     29 C          18.7150   72.6347   -5.9224 C.3     1  UNL1        0.2611
     30 C          18.0017   71.3822   -5.4101 C.3     1  UNL1        0.1582
     31 C          17.3777   70.6399   -6.5972 C.3     1  UNL1        0.1625
     32 C          16.4953   71.6192   -7.3786 C.3     1  UNL1        0.1686
     33 C          17.3233   72.8526   -7.7450 C.3     1  UNL1        0.1760
     34 O          16.5841   69.5525   -6.1184 O.3     1  UNL1       -0.3801
     35 O          16.0210   70.9890   -8.5700 O.3     1  UNL1       -0.3794
     36 O          17.7757   73.5001   -6.5565 O.3     1  UNL1       -0.3263
     37 H          16.2121   69.1144   -6.8962 H       1  UNL1        0.2105
     38 H          15.4719   71.6391   -9.0308 H       1  UNL1        0.2105
     39 C          18.5962   69.8055   -3.6509 C.2     1  UNL1        0.2231
     40 C          19.5898   68.9075   -2.9590 C.3     1  UNL1        0.0946
     41 N          18.9664   70.5094   -4.7380 N.am    1  UNL1       -0.2994
     42 O          17.4632   69.8950   -3.2284 O.2     1  UNL1       -0.2751
     43 H          19.8731   70.4381   -5.0761 H       1  UNL1        0.1496
     44 C          16.4600   73.8229   -8.5541 C.3     1  UNL1        0.1693
     45 O          15.1488   73.2769   -8.7113 O.3     1  UNL1       -0.3794
     46 H          14.6388   73.9175   -9.2253 H       1  UNL1        0.2105
@<TRIPOS>BOND
     1    29    30    1
     2    29    28    1
     3    29    36    1
     4    30    31    1
     5    30    41    1
     6    31    32    1
     7    31    34    1
     8    32    33    1
     9    32    35    1
    10    33    44    1
    11    33    36    1
    12    44    45    1
    13    39    40    1
    14    39    41   am
    15    39    42    2
    16    41    43    1
    17    28    25    1
    18    34    37    1
    19    35    38    1
    20    45    46    1
    21    15    16   ar
    22    15    20   ar
    23    15     6    1
    24    16    17   ar
    25    16    21    2
    26    17    18   ar
    27    17    23    1
    28    18    19   ar
    29    18    22    2
    30    19    20   ar
    31     6     7    1
    32     6    11    1
    33     7     8    1
    34     7     9    1
    35     8    13    1
    36     9    10    1
    37     9    12    1
    38    10    11    1
    39    10     5    1
    40    12    14    1
    41     5     4    1
    42     4     1    1
    43     1     2    2
    44     1     3    1
    45     1    24    1
    46    24    25    1
    47    25    26    2
    48    25    27    1
