@<TRIPOS>MOLECULE
*****
 43 45 0 0 0
SMALL
GASTEIGER

@<TRIPOS>ATOM
      1 P          22.7827   71.7375   -2.2828 P.3     1  UNL1        0.2189
      2 O          23.0691   73.2262   -1.7166 O.co2   1  UNL1       -0.4371
      3 O          23.4912   71.3987   -3.5614 O.2     1  UNL1       -0.5170
      4 O          21.1681   71.6429   -2.3278 O.3     1  UNL1       -0.3112
      5 C          20.5394   71.4023   -3.5734 C.3     1  UNL1        0.1811
      6 O          18.5971   72.2060   -4.7393 O.3     1  UNL1       -0.3308
      7 O          16.9911   71.0023   -2.5114 O.3     1  UNL1       -0.3794
      8 O          16.7431   69.1471   -4.4945 O.3     1  UNL1       -0.3779
      9 C          18.1943   70.5282   -3.1165 C.3     1  UNL1        0.1713
     10 C          17.9012   69.9553   -4.4869 C.3     1  UNL1        0.1895
     11 C          19.0579   71.7359   -3.4540 C.3     1  UNL1        0.1764
     12 C          17.7432   71.2114   -5.3266 C.3     1  UNL1        0.2383
     13 H          16.4229   70.2485   -2.2868 H       1  UNL1        0.2105
     14 H          16.8942   68.3606   -3.9463 H       1  UNL1        0.2106
     15 O          16.0002   70.3373   -7.3698 O.2     1  UNL1       -0.2464
     16 O          19.3483   70.4714  -10.5347 O.2     1  UNL1       -0.2670
     17 N          18.1331   71.0095   -6.6934 N.ar    1  UNL1       -0.2551
     18 N          17.6697   70.4039   -8.9439 N.ar    1  UNL1       -0.2743
     19 C          17.1800   70.5682   -7.6415 C.ar    1  UNL1        0.3323
     20 C          19.4452   71.2495   -7.0830 C.ar    1  UNL1        0.0869
     21 C          19.8971   71.0885   -8.3283 C.ar    1  UNL1        0.0795
     22 C          18.9655   70.6292   -9.3793 C.ar    1  UNL1        0.2626
     23 H          17.0251   70.0954   -9.6211 H       1  UNL1        0.1734
     24 O          23.1672   70.7923   -1.0291 O.3     1  UNL1       -0.2703
     25 P          22.4214   70.5485    0.3844 P.3     1  UNL1        0.2208
     26 O          23.4848   69.6534    1.2141 O.co2   1  UNL1       -0.4371
     27 O          21.0572   69.9336    0.2629 O.2     1  UNL1       -0.5170
     28 O          22.4446   71.9877    1.1130 O.3     1  UNL1       -0.2858
     29 O          21.6418   72.5695    3.2638 O.3     1  UNL1       -0.3226
     30 O          21.1236   76.1040    1.1887 O.3     1  UNL1       -0.3794
     31 O          20.4583   73.5456   -0.0548 O.3     1  UNL1       -0.3775
     32 O          23.3185   75.8275    3.0746 O.3     1  UNL1       -0.3792
     33 C          21.7533   74.8654    1.5160 C.3     1  UNL1        0.1718
     34 C          20.7591   73.7197    1.3250 C.3     1  UNL1        0.1968
     35 C          22.2085   74.9374    2.9753 C.3     1  UNL1        0.1723
     36 C          21.3197   72.4102    1.8816 C.3     1  UNL1        0.2706
     37 C          22.6342   73.5670    3.4943 C.3     1  UNL1        0.1830
     38 H          20.8259   76.0816    0.2656 H       1  UNL1        0.2105
     39 H          20.1023   74.3728   -0.4146 H       1  UNL1        0.2106
     40 H          23.0609   76.7035    2.7472 H       1  UNL1        0.2106
     41 O          23.8867   74.2275    5.3642 O.co2   1  UNL1       -0.5466
     42 O          21.9574   73.0778    5.7580 O.co2   1  UNL1       -0.5466
     43 C          22.7585   73.5788    4.9832 C.2     1  UNL1        0.0799
@<TRIPOS>UNITY_ATOM_ATTR
2 1
charge -1
26 1
charge -1
41 1
charge -1
@<TRIPOS>BOND
     1     1     4    1
     2     1    24    1
     3     1     2    1
     4     1     3    2
     5    25    28    1
     6    25    24    1
     7    25    26    1
     8    25    27    2
     9     6    11    1
    10     6    12    1
    11    29    36    1
    12    29    37    1
    13     7     9    1
    14     7    13    1
    15     8    10    1
    16     8    14    1
    17     4     5    1
    18    28    36    1
    19    30    33    1
    20    30    38    1
    21    31    34    1
    22    31    39    1
    23    32    35    1
    24    32    40    1
    25    41    43   ar
    26    15    19    2
    27    42    43   ar
    28    16    22    2
    29    17    12    1
    30    17    19   ar
    31    17    20   ar
    32    18    19   ar
    33    18    22   ar
    34    18    23    1
    35     9    10    1
    36     9    11    1
    37    10    12    1
    38    11     5    1
    39    33    34    1
    40    33    35    1
    41    34    36    1
    42    35    37    1
    43    37    43    1
    44    20    21   ar
    45    21    22   ar
@<TRIPOS>MOLECULE
*****
 43 45 0 0 0
SMALL
GASTEIGER

@<TRIPOS>ATOM
      1 P          21.9533   73.7534   -6.0293 P.3     1  UNL1        0.2189
      2 O          22.2933   75.3270   -6.1936 O.co2   1  UNL1       -0.4371
      3 O          22.8603   72.8270   -6.7850 O.2     1  UNL1       -0.5170
      4 O          20.3814   73.6548   -6.3999 O.3     1  UNL1       -0.3112
      5 C          19.9056   74.3712   -7.5246 C.3     1  UNL1        0.1811
      6 O          19.6294   72.0473   -8.0729 O.3     1  UNL1       -0.3308
      7 O          17.9572   72.9820  -10.3797 O.3     1  UNL1       -0.3794
      8 O          16.0808   72.2142   -8.5561 O.3     1  UNL1       -0.3779
      9 C          18.0651   73.5246   -9.0635 C.3     1  UNL1        0.1713
     10 C          17.3363   72.6429   -8.0717 C.3     1  UNL1        0.1895
     11 C          19.5126   73.3812   -8.6135 C.3     1  UNL1        0.1764
     12 C          18.3157   71.4959   -7.8901 C.3     1  UNL1        0.2383
     13 H          17.0409   73.0623  -10.6888 H       1  UNL1        0.2105
     14 H          15.4934   72.9805   -8.6544 H       1  UNL1        0.2106
     15 O          16.1275   69.9704   -6.9620 O.2     1  UNL1       -0.2464
     16 O          18.1105   69.2862   -2.8579 O.2     1  UNL1       -0.2670
     17 N          18.2340   70.9073   -6.5833 N.ar    1  UNL1       -0.2551
     18 N          17.1168   69.6319   -4.9185 N.ar    1  UNL1       -0.2743
     19 C          17.0903   70.1595   -6.2162 C.ar    1  UNL1        0.3323
     20 C          19.2789   71.0716   -5.6821 C.ar    1  UNL1        0.0869
     21 C          19.2898   70.5626   -4.4486 C.ar    1  UNL1        0.0795
     22 C          18.1324   69.7689   -3.9861 C.ar    1  UNL1        0.2626
     23 H          16.3306   69.1092   -4.6395 H       1  UNL1        0.1734
     24 O          21.9625   73.5455   -4.4264 O.3     1  UNL1       -0.2703
     25 P          23.0461   72.8438   -3.4532 P.3     1  UNL1        0.2208
     26 O          24.3927   73.7019   -3.7195 O.co2   1  UNL1       -0.4371
     27 O          23.2016   71.3662   -3.6688 O.2     1  UNL1       -0.5170
     28 O          22.5872   73.2584   -1.9633 O.3     1  UNL1       -0.2858
     29 O          21.6554   71.4878   -0.6960 O.3     1  UNL1       -0.3226
     30 O          20.8300   74.7561    1.6924 O.3     1  UNL1       -0.3794
     31 O          20.4850   74.9140   -1.2042 O.3     1  UNL1       -0.3775
     32 O          22.9779   72.9322    2.4067 O.3     1  UNL1       -0.3792
     33 C          21.5778   73.9847    0.7524 C.3     1  UNL1        0.1718
     34 C          20.7192   73.7102   -0.4825 C.3     1  UNL1        0.1968
     35 C          21.9738   72.6700    1.4282 C.3     1  UNL1        0.1723
     36 C          21.3985   72.6992   -1.4073 C.3     1  UNL1        0.2706
     37 C          22.5267   71.6688    0.4181 C.3     1  UNL1        0.1830
     38 H          20.5672   75.5965    1.2851 H       1  UNL1        0.2105
     39 H          20.0544   75.5601   -0.6233 H       1  UNL1        0.2106
     40 H          22.6388   73.5682    3.0557 H       1  UNL1        0.2106
     41 O          21.6517   69.4934    0.4747 O.co2   1  UNL1       -0.5466
     42 O          23.4006   69.9475    1.8654 O.co2   1  UNL1       -0.5466
     43 C          22.5994   70.3002    1.0130 C.2     1  UNL1        0.0799
@<TRIPOS>UNITY_ATOM_ATTR
2 1
charge -1
26 1
charge -1
41 1
charge -1
@<TRIPOS>BOND
     1     1     4    1
     2     1    24    1
     3     1     2    1
     4     1     3    2
     5    25    28    1
     6    25    24    1
     7    25    26    1
     8    25    27    2
     9     6    11    1
    10     6    12    1
    11    29    36    1
    12    29    37    1
    13     7     9    1
    14     7    13    1
    15     8    10    1
    16     8    14    1
    17     4     5    1
    18    28    36    1
    19    30    33    1
    20    30    38    1
    21    31    34    1
    22    31    39    1
    23    32    35    1
    24    32    40    1
    25    41    43   ar
    26    15    19    2
    27    42    43   ar
    28    16    22    2
    29    17    12    1
    30    17    19   ar
    31    17    20   ar
    32    18    19   ar
    33    18    22   ar
    34    18    23    1
    35     9    10    1
    36     9    11    1
    37    10    12    1
    38    11     5    1
    39    33    34    1
    40    33    35    1
    41    34    36    1
    42    35    37    1
    43    37    43    1
    44    20    21   ar
    45    21    22   ar
@<TRIPOS>MOLECULE
*****
 43 45 0 0 0
SMALL
GASTEIGER

@<TRIPOS>ATOM
      1 P          22.8281   71.7839   -2.2968 P.3     1  UNL1        0.2189
      2 O          23.5092   73.2478   -2.4077 O.co2   1  UNL1       -0.4371
      3 O          23.4031   70.7464   -3.2159 O.2     1  UNL1       -0.5170
      4 O          21.2464   72.0772   -2.4701 O.3     1  UNL1       -0.3112
      5 C          20.5559   71.4527   -3.5367 C.3     1  UNL1        0.1811
      6 O          18.6016   72.2327   -4.6986 O.3     1  UNL1       -0.3308
      7 O          17.0143   70.9965   -2.4751 O.3     1  UNL1       -0.3794
      8 O          16.7926   69.1460   -4.4658 O.3     1  UNL1       -0.3779
      9 C          18.2240   70.5425   -3.0826 C.3     1  UNL1        0.1713
     10 C          17.9388   69.9711   -4.4554 C.3     1  UNL1        0.1895
     11 C          19.0697   71.7641   -3.4154 C.3     1  UNL1        0.1764
     12 C          17.7621   71.2282   -5.2898 C.3     1  UNL1        0.2383
     13 H          16.4572   70.2334   -2.2535 H       1  UNL1        0.2105
     14 H          16.9554   68.3595   -3.9210 H       1  UNL1        0.2106
     15 O          16.0234   70.3681   -7.3425 O.2     1  UNL1       -0.2464
     16 O          19.3761   70.5318  -10.5011 O.2     1  UNL1       -0.2670
     17 N          18.1543   71.0377   -6.6575 N.ar    1  UNL1       -0.2551
     18 N          17.6951   70.4494   -8.9135 N.ar    1  UNL1       -0.2743
     19 C          17.2032   70.6027   -7.6105 C.ar    1  UNL1        0.3323
     20 C          19.4667   71.2825   -7.0432 C.ar    1  UNL1        0.0869
     21 C          19.9207   71.1320   -8.2890 C.ar    1  UNL1        0.0795
     22 C          18.9914   70.6798   -9.3451 C.ar    1  UNL1        0.2626
     23 H          17.0520   70.1455   -9.5941 H       1  UNL1        0.1734
     24 O          22.9635   71.4390   -0.7234 O.3     1  UNL1       -0.2703
     25 P          22.0786   70.4823    0.2334 P.3     1  UNL1        0.2208
     26 O          23.1951   69.6462    1.0549 O.co2   1  UNL1       -0.4371
     27 O          21.0828   69.6303   -0.4989 O.2     1  UNL1       -0.5170
     28 O          21.4324   71.4796    1.3244 O.3     1  UNL1       -0.2858
     29 O          22.0013   73.7703    1.1286 O.3     1  UNL1       -0.3226
     30 O          20.2557   73.6547    4.8712 O.3     1  UNL1       -0.3794
     31 O          22.0891   71.5429    4.0265 O.3     1  UNL1       -0.3775
     32 O          18.7938   74.7560    2.6127 O.3     1  UNL1       -0.3792
     33 C          20.4549   73.2612    3.5135 C.3     1  UNL1        0.1718
     34 C          21.8900   72.7672    3.3291 C.3     1  UNL1        0.1968
     35 C          20.1930   74.4792    2.6248 C.3     1  UNL1        0.1723
     36 C          22.2096   72.5548    1.8487 C.3     1  UNL1        0.2706
     37 C          20.6539   74.2323    1.1912 C.3     1  UNL1        0.1830
     38 H          20.4167   72.8965    5.4547 H       1  UNL1        0.2105
     39 H          21.8878   71.6703    4.9665 H       1  UNL1        0.2106
     40 H          18.4878   74.9149    3.5193 H       1  UNL1        0.2106
     41 O          20.3987   76.5637    1.2222 O.co2   1  UNL1       -0.5466
     42 O          20.9776   75.6071   -0.7649 O.co2   1  UNL1       -0.5466
     43 C          20.7018   75.5120    0.4216 C.2     1  UNL1        0.0799
@<TRIPOS>UNITY_ATOM_ATTR
2 1
charge -1
26 1
charge -1
41 1
charge -1
@<TRIPOS>BOND
     1     1     4    1
     2     1    24    1
     3     1     2    1
     4     1     3    2
     5    25    28    1
     6    25    24    1
     7    25    26    1
     8    25    27    2
     9     6    11    1
    10     6    12    1
    11    29    36    1
    12    29    37    1
    13     7     9    1
    14     7    13    1
    15     8    10    1
    16     8    14    1
    17     4     5    1
    18    28    36    1
    19    30    33    1
    20    30    38    1
    21    31    34    1
    22    31    39    1
    23    32    35    1
    24    32    40    1
    25    41    43   ar
    26    15    19    2
    27    42    43   ar
    28    16    22    2
    29    17    12    1
    30    17    19   ar
    31    17    20   ar
    32    18    19   ar
    33    18    22   ar
    34    18    23    1
    35     9    10    1
    36     9    11    1
    37    10    12    1
    38    11     5    1
    39    33    34    1
    40    33    35    1
    41    34    36    1
    42    35    37    1
    43    37    43    1
    44    20    21   ar
    45    21    22   ar
@<TRIPOS>MOLECULE
*****
 43 45 0 0 0
SMALL
GASTEIGER

@<TRIPOS>ATOM
      1 P          21.6947   70.3366   -1.0372 P.3     1  UNL1        0.2189
      2 O          22.9748   71.0858   -1.6843 O.co2   1  UNL1       -0.4371
      3 O          22.0241   69.2854   -0.0183 O.2     1  UNL1       -0.5170
      4 O          20.8507   69.8302   -2.3214 O.3     1  UNL1       -0.3112
      5 C          20.6201   70.7408   -3.3807 C.3     1  UNL1        0.1811
      6 O          18.8551   71.9086   -4.5205 O.3     1  UNL1       -0.3308
      7 O          17.0257   70.8262   -2.4055 O.3     1  UNL1       -0.3794
      8 O          16.5488   69.1635   -4.5136 O.3     1  UNL1       -0.3779
      9 C          18.1576   70.2119   -3.0219 C.3     1  UNL1        0.1713
     10 C          17.8165   69.7809   -4.4326 C.3     1  UNL1        0.1895
     11 C          19.2045   71.2909   -3.2628 C.3     1  UNL1        0.1764
     12 C          17.8748   71.0979   -5.1876 C.3     1  UNL1        0.2383
     13 H          16.3430   70.1563   -2.2417 H       1  UNL1        0.2105
     14 H          16.5632   68.3294   -4.0176 H       1  UNL1        0.2106
     15 O          16.0913   70.4779   -7.2880 O.2     1  UNL1       -0.2464
     16 O          19.4832   70.4647  -10.4087 O.2     1  UNL1       -0.2670
     17 N          18.2650   70.9268   -6.5585 N.ar    1  UNL1       -0.2551
     18 N          17.7825   70.4709   -8.8401 N.ar    1  UNL1       -0.2743
     19 C          17.2905   70.6163   -7.5363 C.ar    1  UNL1        0.3323
     20 C          19.5985   71.0681   -6.9228 C.ar    1  UNL1        0.0869
     21 C          20.0523   70.9266   -8.1697 C.ar    1  UNL1        0.0795
     22 C          19.0993   70.6011   -9.2510 C.ar    1  UNL1        0.2626
     23 H          17.1231   70.2526   -9.5378 H       1  UNL1        0.1734
     24 O          20.8023   71.5620   -0.4761 O.3     1  UNL1       -0.2703
     25 P          21.0359   73.1605   -0.5380 P.3     1  UNL1        0.2208
     26 O          19.5444   73.7433   -0.7748 O.co2   1  UNL1       -0.4371
     27 O          22.0405   73.5967   -1.5649 O.2     1  UNL1       -0.5170
     28 O          21.4011   73.5798    0.9763 O.3     1  UNL1       -0.2858
     29 O          23.4356   74.4497    1.8211 O.3     1  UNL1       -0.3226
     30 O          21.9793   72.3895    5.0926 O.3     1  UNL1       -0.3794
     31 O          21.8014   71.2336    2.4156 O.3     1  UNL1       -0.3775
     32 O          21.8226   75.2911    5.0074 O.3     1  UNL1       -0.3792
     33 C          21.8932   73.1567    3.8918 C.3     1  UNL1        0.1718
     34 C          22.5584   72.3920    2.7472 C.3     1  UNL1        0.1968
     35 C          22.6091   74.4883    4.1291 C.3     1  UNL1        0.1723
     36 C          22.6903   73.2733    1.5043 C.3     1  UNL1        0.2706
     37 C          22.8140   75.2510    2.8234 C.3     1  UNL1        0.1830
     38 H          21.5310   71.5385    4.9657 H       1  UNL1        0.2105
     39 H          21.7135   70.6700    3.1997 H       1  UNL1        0.2106
     40 H          21.6847   74.8170    5.8423 H       1  UNL1        0.2106
     41 O          24.2143   76.4232    4.2954 O.co2   1  UNL1       -0.5466
     42 O          24.1540   77.1337    2.1296 O.co2   1  UNL1       -0.5466
     43 C          23.7869   76.3696    3.0096 C.2     1  UNL1        0.0799
@<TRIPOS>UNITY_ATOM_ATTR
2 1
charge -1
26 1
charge -1
41 1
charge -1
@<TRIPOS>BOND
     1     1     4    1
     2     1    24    1
     3     1     2    1
     4     1     3    2
     5    25    28    1
     6    25    24    1
     7    25    26    1
     8    25    27    2
     9     6    11    1
    10     6    12    1
    11    29    36    1
    12    29    37    1
    13     7     9    1
    14     7    13    1
    15     8    10    1
    16     8    14    1
    17     4     5    1
    18    28    36    1
    19    30    33    1
    20    30    38    1
    21    31    34    1
    22    31    39    1
    23    32    35    1
    24    32    40    1
    25    41    43   ar
    26    15    19    2
    27    42    43   ar
    28    16    22    2
    29    17    12    1
    30    17    19   ar
    31    17    20   ar
    32    18    19   ar
    33    18    22   ar
    34    18    23    1
    35     9    10    1
    36     9    11    1
    37    10    12    1
    38    11     5    1
    39    33    34    1
    40    33    35    1
    41    34    36    1
    42    35    37    1
    43    37    43    1
    44    20    21   ar
    45    21    22   ar
@<TRIPOS>MOLECULE
*****
 43 45 0 0 0
SMALL
GASTEIGER

@<TRIPOS>ATOM
      1 P          22.1261   75.7150   -7.7961 P.3     1  UNL1        0.2189
      2 O          21.3779   77.1496   -7.7633 O.co2   1  UNL1       -0.4371
      3 O          23.4457   75.7049   -8.5103 O.2     1  UNL1       -0.5170
      4 O          21.0042   74.7049   -8.3785 O.3     1  UNL1       -0.3112
      5 C          20.9118   73.4052   -7.8247 C.3     1  UNL1        0.1811
      6 O          19.9406   71.2309   -8.1519 O.3     1  UNL1       -0.3308
      7 O          18.4107   72.4604  -10.4189 O.3     1  UNL1       -0.3794
      8 O          16.5578   72.3880   -8.4195 O.3     1  UNL1       -0.3779
      9 C          18.7812   73.0316   -9.1639 C.3     1  UNL1        0.1713
     10 C          17.9201   72.4645   -8.0552 C.3     1  UNL1        0.1895
     11 C          20.1615   72.5039   -8.7969 C.3     1  UNL1        0.1764
     12 C          18.5452   71.0970   -7.8385 C.3     1  UNL1        0.2383
     13 H          17.5318   72.7829  -10.6744 H       1  UNL1        0.2105
     14 H          16.2060   73.2838   -8.5456 H       1  UNL1        0.2106
     15 O          16.2015   69.9423   -6.7660 O.2     1  UNL1       -0.2464
     16 O          18.1498   69.3891   -2.6256 O.2     1  UNL1       -0.2670
     17 N          18.4125   70.6423   -6.4833 N.ar    1  UNL1       -0.2551
     18 N          17.1738   69.6688   -4.7046 N.ar    1  UNL1       -0.2743
     19 C          17.1918   70.0772   -6.0447 C.ar    1  UNL1        0.3323
     20 C          19.4836   70.7566   -5.6055 C.ar    1  UNL1        0.0869
     21 C          19.4514   70.3627   -4.3309 C.ar    1  UNL1        0.0795
     22 C          18.2130   69.7624   -3.7931 C.ar    1  UNL1        0.2626
     23 H          16.3339   69.2741   -4.3757 H       1  UNL1        0.1734
     24 O          22.2033   75.3101   -6.2331 O.3     1  UNL1       -0.2703
     25 P          23.1571   75.8472   -5.0434 P.3     1  UNL1        0.2208
     26 O          22.5403   77.3050   -4.7044 O.co2   1  UNL1       -0.4371
     27 O          24.6192   75.8583   -5.3838 O.2     1  UNL1       -0.5170
     28 O          22.7734   74.9364   -3.7684 O.3     1  UNL1       -0.2858
     29 O          21.8852   72.7472   -3.6015 O.3     1  UNL1       -0.3226
     30 O          20.0992   74.6265   -0.3849 O.3     1  UNL1       -0.3794
     31 O          20.3324   75.9935   -2.9562 O.3     1  UNL1       -0.3775
     32 O          22.3098   72.7877    0.0427 O.3     1  UNL1       -0.3792
     33 C          21.1322   74.3733   -1.3372 C.3     1  UNL1        0.1718
     34 C          20.5960   74.6107   -2.7492 C.3     1  UNL1        0.1968
     35 C          21.5787   72.9185   -1.1750 C.3     1  UNL1        0.1723
     36 C          21.5963   74.1313   -3.8020 C.3     1  UNL1        0.2706
     37 C          22.4727   72.4781   -2.3305 C.3     1  UNL1        0.1830
     38 H          19.7995   75.5453   -0.4694 H       1  UNL1        0.2105
     39 H          19.6985   76.3045   -2.2914 H       1  UNL1        0.2106
     40 H          21.7520   73.0650    0.7862 H       1  UNL1        0.2106
     41 O          23.5445   70.6158   -3.2711 O.co2   1  UNL1       -0.5466
     42 O          22.0275   70.2169   -1.6163 O.co2   1  UNL1       -0.5466
     43 C          22.6313   70.9925   -2.3420 C.2     1  UNL1        0.0799
@<TRIPOS>UNITY_ATOM_ATTR
2 1
charge -1
26 1
charge -1
41 1
charge -1
@<TRIPOS>BOND
     1     1     4    1
     2     1    24    1
     3     1     2    1
     4     1     3    2
     5    25    28    1
     6    25    24    1
     7    25    26    1
     8    25    27    2
     9     6    11    1
    10     6    12    1
    11    29    36    1
    12    29    37    1
    13     7     9    1
    14     7    13    1
    15     8    10    1
    16     8    14    1
    17     4     5    1
    18    28    36    1
    19    30    33    1
    20    30    38    1
    21    31    34    1
    22    31    39    1
    23    32    35    1
    24    32    40    1
    25    41    43   ar
    26    15    19    2
    27    42    43   ar
    28    16    22    2
    29    17    12    1
    30    17    19   ar
    31    17    20   ar
    32    18    19   ar
    33    18    22   ar
    34    18    23    1
    35     9    10    1
    36     9    11    1
    37    10    12    1
    38    11     5    1
    39    33    34    1
    40    33    35    1
    41    34    36    1
    42    35    37    1
    43    37    43    1
    44    20    21   ar
    45    21    22   ar
@<TRIPOS>MOLECULE
*****
 43 45 0 0 0
SMALL
GASTEIGER

@<TRIPOS>ATOM
      1 P          22.7811   72.7138   -3.8938 P.3     1  UNL1        0.2189
      2 O          23.1002   72.9544   -5.4620 O.co2   1  UNL1       -0.4371
      3 O          23.4577   71.5205   -3.2854 O.2     1  UNL1       -0.5170
      4 O          21.1647   72.7179   -3.8211 O.3     1  UNL1       -0.3112
      5 C          20.4943   71.4890   -3.6094 C.3     1  UNL1        0.1811
      6 O          18.5207   72.1800   -4.7948 O.3     1  UNL1       -0.3308
      7 O          16.9647   70.9349   -2.5543 O.3     1  UNL1       -0.3794
      8 O          16.8152   69.0394   -4.5089 O.3     1  UNL1       -0.3779
      9 C          18.1920   70.5100   -3.1474 C.3     1  UNL1        0.1713
     10 C          17.9330   69.9025   -4.5098 C.3     1  UNL1        0.1895
     11 C          18.9980   71.7526   -3.5007 C.3     1  UNL1        0.1764
     12 C          17.7184   71.1364   -5.3697 C.3     1  UNL1        0.2383
     13 H          16.4325   70.1581   -2.3200 H       1  UNL1        0.2105
     14 H          17.0015   68.2696   -3.9479 H       1  UNL1        0.2106
     15 O          15.9435   70.5836   -7.4959 O.2     1  UNL1       -0.2464
     16 O          19.3846   70.3717  -10.5549 O.2     1  UNL1       -0.2670
     17 N          18.1236   70.9324   -6.7317 N.ar    1  UNL1       -0.2551
     18 N          17.6591   70.4776   -9.0172 N.ar    1  UNL1       -0.2743
     19 C          17.1522   70.6603   -7.7239 C.ar    1  UNL1        0.3323
     20 C          19.4686   71.0042   -7.0733 C.ar    1  UNL1        0.0869
     21 C          19.9366   70.8279   -8.3105 C.ar    1  UNL1        0.0795
     22 C          18.9877   70.5387   -9.4056 C.ar    1  UNL1        0.2626
     23 H          17.0021   70.2849   -9.7247 H       1  UNL1        0.1734
     24 O          23.1787   74.1289   -3.2213 O.3     1  UNL1       -0.2703
     25 P          22.4366   75.0113   -2.0880 P.3     1  UNL1        0.2208
     26 O          20.9068   75.0766   -2.6130 O.co2   1  UNL1       -0.4371
     27 O          23.0642   76.3529   -1.8432 O.2     1  UNL1       -0.5170
     28 O          22.3818   74.0514   -0.7926 O.3     1  UNL1       -0.2858
     29 O          21.4387   71.9413   -0.2754 O.3     1  UNL1       -0.3226
     30 O          20.5728   74.1077    3.1342 O.3     1  UNL1       -0.3794
     31 O          20.2652   75.3176    0.4929 O.3     1  UNL1       -0.3775
     32 O          22.7165   72.1444    3.1580 O.3     1  UNL1       -0.3792
     33 C          21.3350   73.7332    1.9867 C.3     1  UNL1        0.1718
     34 C          20.4935   73.9326    0.7259 C.3     1  UNL1        0.1968
     35 C          21.7260   72.2614    2.1384 C.3     1  UNL1        0.1723
     36 C          21.1876   73.3297   -0.4962 C.3     1  UNL1        0.2706
     37 C          22.2949   71.6993    0.8388 C.3     1  UNL1        0.1830
     38 H          20.3130   75.0395    3.0599 H       1  UNL1        0.2105
     39 H          19.8252   75.7066    1.2646 H       1  UNL1        0.2106
     40 H          22.3671   72.4988    3.9906 H       1  UNL1        0.2106
     41 O          23.4482   69.8032    1.5980 O.co2   1  UNL1       -0.5466
     42 O          21.5573   69.4497    0.3737 O.co2   1  UNL1       -0.5466
     43 C          22.3638   70.2078    0.8913 C.2     1  UNL1        0.0799
@<TRIPOS>UNITY_ATOM_ATTR
2 1
charge -1
26 1
charge -1
41 1
charge -1
@<TRIPOS>BOND
     1     1     4    1
     2     1    24    1
     3     1     2    1
     4     1     3    2
     5    25    28    1
     6    25    24    1
     7    25    26    1
     8    25    27    2
     9     6    11    1
    10     6    12    1
    11    29    36    1
    12    29    37    1
    13     7     9    1
    14     7    13    1
    15     8    10    1
    16     8    14    1
    17     4     5    1
    18    28    36    1
    19    30    33    1
    20    30    38    1
    21    31    34    1
    22    31    39    1
    23    32    35    1
    24    32    40    1
    25    41    43   ar
    26    15    19    2
    27    42    43   ar
    28    16    22    2
    29    17    12    1
    30    17    19   ar
    31    17    20   ar
    32    18    19   ar
    33    18    22   ar
    34    18    23    1
    35     9    10    1
    36     9    11    1
    37    10    12    1
    38    11     5    1
    39    33    34    1
    40    33    35    1
    41    34    36    1
    42    35    37    1
    43    37    43    1
    44    20    21   ar
    45    21    22   ar
@<TRIPOS>MOLECULE
*****
 43 45 0 0 0
SMALL
GASTEIGER

@<TRIPOS>ATOM
      1 P          21.5241   70.9604   -1.0354 P.3     1  UNL1        0.2189
      2 O          23.0667   71.1548   -0.5867 O.co2   1  UNL1       -0.4371
      3 O          20.9874   69.5686   -0.8725 O.2     1  UNL1       -0.5170
      4 O          21.4779   71.5599   -2.5376 O.3     1  UNL1       -0.3112
      5 C          20.6783   70.9027   -3.5036 C.3     1  UNL1        0.1811
      6 O          18.8212   71.9646   -4.5995 O.3     1  UNL1       -0.3308
      7 O          17.1083   70.7709   -2.4472 O.3     1  UNL1       -0.3794
      8 O          16.6841   69.0864   -4.5492 O.3     1  UNL1       -0.3779
      9 C          18.2607   70.2266   -3.0910 C.3     1  UNL1        0.1713
     10 C          17.9140   69.7784   -4.4950 C.3     1  UNL1        0.1895
     11 C          19.2354   71.3668   -3.3520 C.3     1  UNL1        0.1764
     12 C          17.8763   71.0979   -5.2470 C.3     1  UNL1        0.2383
     13 H          16.4709   70.0610   -2.2702 H       1  UNL1        0.2105
     14 H          16.7597   68.2537   -4.0564 H       1  UNL1        0.2106
     15 O          16.0750   70.4296   -7.3170 O.2     1  UNL1       -0.2464
     16 O          19.4014   70.5686  -10.5045 O.2     1  UNL1       -0.2670
     17 N          18.2449   70.9529   -6.6268 N.ar    1  UNL1       -0.2551
     18 N          17.7337   70.4985   -8.9024 N.ar    1  UNL1       -0.2743
     19 C          17.2630   70.6146   -7.5879 C.ar    1  UNL1        0.3323
     20 C          19.5646   71.1468   -7.0163 C.ar    1  UNL1        0.0869
     21 C          19.9981   71.0327   -8.2732 C.ar    1  UNL1        0.0795
     22 C          19.0361   70.6810   -9.3382 C.ar    1  UNL1        0.2626
     23 H          17.0688   70.2617   -9.5889 H       1  UNL1        0.1734
     24 O          20.7502   72.0860   -0.1711 O.3     1  UNL1       -0.2703
     25 P          20.7621   73.6992   -0.2761 P.3     1  UNL1        0.2208
     26 O          22.2837   74.0844    0.1199 O.co2   1  UNL1       -0.4371
     27 O          19.7151   74.3784    0.5584 O.2     1  UNL1       -0.5170
     28 O          20.6623   74.0072   -1.8565 O.3     1  UNL1       -0.2858
     29 O          22.6033   75.2506   -2.4002 O.3     1  UNL1       -0.3226
     30 O          20.8045   74.8409   -6.0967 O.3     1  UNL1       -0.3794
     31 O          19.2042   75.4550   -3.7311 O.3     1  UNL1       -0.3775
     32 O          23.1264   73.2291   -5.4172 O.3     1  UNL1       -0.3792
     33 C          21.1556   74.4538   -4.7683 C.3     1  UNL1        0.1718
     34 C          20.6260   75.4898   -3.7765 C.3     1  UNL1        0.1968
     35 C          22.6816   74.3711   -4.6875 C.3     1  UNL1        0.1723
     36 C          21.1756   75.2340   -2.3724 C.3     1  UNL1        0.2706
     37 C          23.1568   74.2425   -3.2432 C.3     1  UNL1        0.1830
     38 H          19.8390   74.9001   -6.1720 H       1  UNL1        0.2105
     39 H          18.8488   75.6163   -4.6188 H       1  UNL1        0.2106
     40 H          22.8303   73.2984   -6.3383 H       1  UNL1        0.2106
     41 O          24.9509   74.9592   -1.9130 O.co2   1  UNL1       -0.5466
     42 O          25.4325   74.3023   -4.0427 O.co2   1  UNL1       -0.5466
     43 C          24.6266   74.4922   -3.1441 C.2     1  UNL1        0.0799
@<TRIPOS>UNITY_ATOM_ATTR
2 1
charge -1
26 1
charge -1
41 1
charge -1
@<TRIPOS>BOND
     1     1     4    1
     2     1    24    1
     3     1     2    1
     4     1     3    2
     5    25    28    1
     6    25    24    1
     7    25    26    1
     8    25    27    2
     9     6    11    1
    10     6    12    1
    11    29    36    1
    12    29    37    1
    13     7     9    1
    14     7    13    1
    15     8    10    1
    16     8    14    1
    17     4     5    1
    18    28    36    1
    19    30    33    1
    20    30    38    1
    21    31    34    1
    22    31    39    1
    23    32    35    1
    24    32    40    1
    25    41    43   ar
    26    15    19    2
    27    42    43   ar
    28    16    22    2
    29    17    12    1
    30    17    19   ar
    31    17    20   ar
    32    18    19   ar
    33    18    22   ar
    34    18    23    1
    35     9    10    1
    36     9    11    1
    37    10    12    1
    38    11     5    1
    39    33    34    1
    40    33    35    1
    41    34    36    1
    42    35    37    1
    43    37    43    1
    44    20    21   ar
    45    21    22   ar
@<TRIPOS>MOLECULE
*****
 43 45 0 0 0
SMALL
GASTEIGER

@<TRIPOS>ATOM
      1 P          21.5821   72.9737   -6.1472 P.3     1  UNL1        0.2189
      2 O          21.3112   74.5006   -5.6845 O.co2   1  UNL1       -0.4371
      3 O          22.7815   72.7820   -7.0284 O.2     1  UNL1       -0.5170
      4 O          20.1673   72.5007   -6.7735 O.3     1  UNL1       -0.3112
      5 C          19.7878   71.1434   -6.6380 C.3     1  UNL1        0.1811
      6 O          17.5703   70.8669   -7.5234 O.3     1  UNL1       -0.3308
      7 O          18.8511   70.8877  -10.2346 O.3     1  UNL1       -0.3794
      8 O          17.8633   73.4206  -10.0229 O.3     1  UNL1       -0.3779
      9 C          19.1993   71.6289   -9.0650 C.3     1  UNL1        0.1713
     10 C          18.1979   72.7402   -8.8314 C.3     1  UNL1        0.1895
     11 C          18.9693   70.7332   -7.8555 C.3     1  UNL1        0.1764
     12 C          17.0205   71.9844   -8.2393 C.3     1  UNL1        0.2383
     13 H          18.9898   71.4395  -11.0207 H       1  UNL1        0.2105
     14 H          18.6455   73.8859  -10.3600 H       1  UNL1        0.2106
     15 O          15.0207   73.8154   -9.0296 O.2     1  UNL1       -0.2464
     16 O          14.1421   75.0188   -4.6680 O.2     1  UNL1       -0.2670
     17 N          16.2536   72.7891   -7.3310 N.ar    1  UNL1       -0.2551
     18 N          14.5857   74.4137   -6.8566 N.ar    1  UNL1       -0.2743
     19 C          15.2728   73.6779   -7.8310 C.ar    1  UNL1        0.3323
     20 C          16.4748   72.6926   -5.9625 C.ar    1  UNL1        0.0869
     21 C          15.8119   73.4004   -5.0458 C.ar    1  UNL1        0.0795
     22 C          14.7708   74.3527   -5.4848 C.ar    1  UNL1        0.2626
     23 H          13.8993   75.0407   -7.1807 H       1  UNL1        0.1734
     24 O          21.6433   72.1746   -4.7434 O.3     1  UNL1       -0.2703
     25 P          22.7816   72.1300   -3.5962 P.3     1  UNL1        0.2208
     26 O          23.9056   73.1546   -4.1504 O.co2   1  UNL1       -0.4371
     27 O          23.2961   70.7528   -3.2924 O.2     1  UNL1       -0.5170
     28 O          22.1225   72.8915   -2.3359 O.3     1  UNL1       -0.2858
     29 O          21.3146   71.1681   -0.9264 O.3     1  UNL1       -0.3226
     30 O          20.5152   74.5390    1.3244 O.3     1  UNL1       -0.3794
     31 O          20.0128   74.5265   -1.5535 O.3     1  UNL1       -0.3775
     32 O          22.7537   72.8187    2.0175 O.3     1  UNL1       -0.3792
     33 C          21.2359   73.7381    0.3878 C.3     1  UNL1        0.1718
     34 C          20.3223   73.3716   -0.7820 C.3     1  UNL1        0.1968
     35 C          21.7079   72.4746    1.1107 C.3     1  UNL1        0.1723
     36 C          20.9828   72.3306   -1.6868 C.3     1  UNL1        0.2706
     37 C          22.2376   71.4350    0.1271 C.3     1  UNL1        0.1830
     38 H          20.2052   75.3478    0.8873 H       1  UNL1        0.2105
     39 H          19.5936   75.1914   -0.9856 H       1  UNL1        0.2106
     40 H          22.4296   73.4799    2.6489 H       1  UNL1        0.2106
     41 O          23.3267   70.1554    1.7636 O.co2   1  UNL1       -0.5466
     42 O          21.7454   69.1030    0.5022 O.co2   1  UNL1       -0.5466
     43 C          22.3842   70.1040    0.7899 C.2     1  UNL1        0.0799
@<TRIPOS>UNITY_ATOM_ATTR
2 1
charge -1
26 1
charge -1
41 1
charge -1
@<TRIPOS>BOND
     1     1     4    1
     2     1    24    1
     3     1     2    1
     4     1     3    2
     5    25    28    1
     6    25    24    1
     7    25    26    1
     8    25    27    2
     9     6    11    1
    10     6    12    1
    11    29    36    1
    12    29    37    1
    13     7     9    1
    14     7    13    1
    15     8    10    1
    16     8    14    1
    17     4     5    1
    18    28    36    1
    19    30    33    1
    20    30    38    1
    21    31    34    1
    22    31    39    1
    23    32    35    1
    24    32    40    1
    25    41    43   ar
    26    15    19    2
    27    42    43   ar
    28    16    22    2
    29    17    12    1
    30    17    19   ar
    31    17    20   ar
    32    18    19   ar
    33    18    22   ar
    34    18    23    1
    35     9    10    1
    36     9    11    1
    37    10    12    1
    38    11     5    1
    39    33    34    1
    40    33    35    1
    41    34    36    1
    42    35    37    1
    43    37    43    1
    44    20    21   ar
    45    21    22   ar
@<TRIPOS>MOLECULE
*****
 43 45 0 0 0
SMALL
GASTEIGER

@<TRIPOS>ATOM
      1 P          21.2232   71.1712   -1.4466 P.3     1  UNL1        0.2189
      2 O          21.2475   69.5867   -1.1182 O.co2   1  UNL1       -0.4371
      3 O          22.3977   71.6730   -2.2344 O.2     1  UNL1       -0.5170
      4 O          20.9985   71.8640   -0.0018 O.3     1  UNL1       -0.3112
      5 C          22.1363   72.2504    0.7470 C.3     1  UNL1        0.1811
      6 O          23.0191   72.4221    2.9761 O.3     1  UNL1       -0.3308
      7 O          20.1707   72.6401    3.8875 O.3     1  UNL1       -0.3794
      8 O          21.0127   75.2332    3.9386 O.3     1  UNL1       -0.3779
      9 C          20.7821   73.1518    2.7031 C.3     1  UNL1        0.1713
     10 C          21.6446   74.3511    3.0347 C.3     1  UNL1        0.1895
     11 C          21.8149   72.1372    2.2317 C.3     1  UNL1        0.1764
     12 C          22.8818   73.6963    3.6249 C.3     1  UNL1        0.2383
     13 H          19.5068   73.2713    4.2076 H       1  UNL1        0.2105
     14 H          20.2314   75.6243    3.5160 H       1  UNL1        0.2106
     15 O          23.4639   75.0567    1.2193 O.2     1  UNL1       -0.2464
     16 O          27.4759   76.6220    2.8617 O.2     1  UNL1       -0.2670
     17 N          24.0714   74.4669    3.3968 N.ar    1  UNL1       -0.2551
     18 N          25.4620   75.8342    2.0392 N.ar    1  UNL1       -0.2743
     19 C          24.2673   75.1110    2.1523 C.ar    1  UNL1        0.3323
     20 C          25.0272   74.5803    4.3991 C.ar    1  UNL1        0.0869
     21 C          26.1610   75.2732    4.2765 C.ar    1  UNL1        0.0795
     22 C          26.4430   75.9754    3.0074 C.ar    1  UNL1        0.2626
     23 H          25.6216   76.2896    1.1811 H       1  UNL1        0.1734
     24 O          19.7921   71.3696   -2.1713 O.3     1  UNL1       -0.2703
     25 P          18.8247   70.3114   -2.9183 P.3     1  UNL1        0.2208
     26 O          17.3435   70.8979   -2.6316 O.co2   1  UNL1       -0.4371
     27 O          19.0202   68.8870   -2.4861 O.2     1  UNL1       -0.5170
     28 O          19.0689   70.5732   -4.4913 O.3     1  UNL1       -0.2858
     29 O          19.8304   72.5281   -5.5904 O.3     1  UNL1       -0.3226
     30 O          17.3381   70.8772   -8.4419 O.3     1  UNL1       -0.3794
     31 O          16.5528   70.9087   -5.6282 O.3     1  UNL1       -0.3775
     32 O          20.2235   70.6796   -8.7353 O.3     1  UNL1       -0.3792
     33 C          18.2597   70.8640   -7.3517 C.3     1  UNL1        0.1718
     34 C          17.6608   71.6211   -6.1661 C.3     1  UNL1        0.1968
     35 C          19.5518   71.5394   -7.8167 C.3     1  UNL1        0.1723
     36 C          18.7026   71.8266   -5.0655 C.3     1  UNL1        0.2706
     37 C          20.4850   71.8240   -6.6433 C.3     1  UNL1        0.1830
     38 H          16.5090   70.4530   -8.1698 H       1  UNL1        0.2105
     39 H          15.8879   70.7745   -6.3213 H       1  UNL1        0.2106
     40 H          19.6402   70.4905   -9.4869 H       1  UNL1        0.2106
     41 O          21.1822   73.5286   -8.0959 O.co2   1  UNL1       -0.5466
     42 O          22.6703   72.8383   -6.5121 O.co2   1  UNL1       -0.5466
     43 C          21.5747   72.7627   -7.0478 C.2     1  UNL1        0.0799
@<TRIPOS>UNITY_ATOM_ATTR
2 1
charge -1
26 1
charge -1
41 1
charge -1
@<TRIPOS>BOND
     1     1     4    1
     2     1    24    1
     3     1     2    1
     4     1     3    2
     5    25    28    1
     6    25    24    1
     7    25    26    1
     8    25    27    2
     9     6    11    1
    10     6    12    1
    11    29    36    1
    12    29    37    1
    13     7     9    1
    14     7    13    1
    15     8    10    1
    16     8    14    1
    17     4     5    1
    18    28    36    1
    19    30    33    1
    20    30    38    1
    21    31    34    1
    22    31    39    1
    23    32    35    1
    24    32    40    1
    25    41    43   ar
    26    15    19    2
    27    42    43   ar
    28    16    22    2
    29    17    12    1
    30    17    19   ar
    31    17    20   ar
    32    18    19   ar
    33    18    22   ar
    34    18    23    1
    35     9    10    1
    36     9    11    1
    37    10    12    1
    38    11     5    1
    39    33    34    1
    40    33    35    1
    41    34    36    1
    42    35    37    1
    43    37    43    1
    44    20    21   ar
    45    21    22   ar
@<TRIPOS>MOLECULE
*****
 43 45 0 0 0
SMALL
GASTEIGER

@<TRIPOS>ATOM
      1 P          21.4422   72.8763   -6.0615 P.3     1  UNL1        0.2189
      2 O          21.1227   74.3697   -5.5261 O.co2   1  UNL1       -0.4371
      3 O          22.6780   72.7563   -6.9042 O.2     1  UNL1       -0.5170
      4 O          20.0622   72.4134   -6.7681 O.3     1  UNL1       -0.3112
      5 C          19.6920   71.0486   -6.6993 C.3     1  UNL1        0.1811
      6 O          17.4941   70.8174   -7.6445 O.3     1  UNL1       -0.3308
      7 O          18.8375   70.9228  -10.3232 O.3     1  UNL1       -0.3794
      8 O          17.8600   73.4534  -10.0469 O.3     1  UNL1       -0.3779
      9 C          19.1628   71.6210   -9.1210 C.3     1  UNL1        0.1713
     10 C          18.1628   72.7302   -8.8723 C.3     1  UNL1        0.1895
     11 C          18.8996   70.6859   -7.9487 C.3     1  UNL1        0.1764
     12 C          16.9676   71.9624   -8.3338 C.3     1  UNL1        0.2383
     13 H          18.9976   71.5003  -11.0864 H       1  UNL1        0.2105
     14 H          18.6525   73.9248  -10.3497 H       1  UNL1        0.2106
     15 O          15.0363   73.8726   -9.1068 O.2     1  UNL1       -0.2464
     16 O          14.0230   74.8895   -4.7270 O.2     1  UNL1       -0.2670
     17 N          16.1846   72.7406   -7.4161 N.ar    1  UNL1       -0.2551
     18 N          14.5342   74.3780   -6.9247 N.ar    1  UNL1       -0.2743
     19 C          15.2413   73.6735   -7.9080 C.ar    1  UNL1        0.3323
     20 C          16.3533   72.5751   -6.0468 C.ar    1  UNL1        0.0869
     21 C          15.6718   73.2537   -5.1217 C.ar    1  UNL1        0.0795
     22 C          14.6674   74.2485   -5.5517 C.ar    1  UNL1        0.2626
     23 H          13.8733   75.0347   -7.2429 H       1  UNL1        0.1734
     24 O          21.4661   72.0010   -4.7028 O.3     1  UNL1       -0.2703
     25 P          22.4033   72.1050   -3.3896 P.3     1  UNL1        0.2208
     26 O          23.7284   72.8548   -3.9393 O.co2   1  UNL1       -0.4371
     27 O          22.6709   70.7890   -2.7183 O.2     1  UNL1       -0.5170
     28 O          21.6756   73.1985   -2.4530 O.3     1  UNL1       -0.2858
     29 O          19.5485   72.3454   -1.8559 O.3     1  UNL1       -0.3226
     30 O          22.0494   69.2839   -0.6554 O.3     1  UNL1       -0.3794
     31 O          22.7765   72.0699   -0.1616 O.3     1  UNL1       -0.3775
     32 O          20.4734   69.0136   -3.0831 O.3     1  UNL1       -0.3792
     33 C          21.6274   70.3791   -1.4680 C.3     1  UNL1        0.1718
     34 C          21.4967   71.6353   -0.6063 C.3     1  UNL1        0.1968
     35 C          20.2760   70.0154   -2.0872 C.3     1  UNL1        0.1723
     36 C          20.8299   72.7680   -1.3880 C.3     1  UNL1        0.2706
     37 C          19.6174   71.2279   -2.7389 C.3     1  UNL1        0.1830
     38 H          22.9064   69.4923   -0.2512 H       1  UNL1        0.2105
     39 H          23.2055   71.3559    0.3350 H       1  UNL1        0.2106
     40 H          20.8921   68.2364   -2.6814 H       1  UNL1        0.2106
     41 O          18.0674   70.1580   -4.1369 O.co2   1  UNL1       -0.5466
     42 O          17.2333   71.3763   -2.3993 O.co2   1  UNL1       -0.5466
     43 C          18.1810   70.9517   -3.0432 C.2     1  UNL1        0.0799
@<TRIPOS>UNITY_ATOM_ATTR
2 1
charge -1
26 1
charge -1
41 1
charge -1
@<TRIPOS>BOND
     1     1     4    1
     2     1    24    1
     3     1     2    1
     4     1     3    2
     5    25    28    1
     6    25    24    1
     7    25    26    1
     8    25    27    2
     9     6    11    1
    10     6    12    1
    11    29    36    1
    12    29    37    1
    13     7     9    1
    14     7    13    1
    15     8    10    1
    16     8    14    1
    17     4     5    1
    18    28    36    1
    19    30    33    1
    20    30    38    1
    21    31    34    1
    22    31    39    1
    23    32    35    1
    24    32    40    1
    25    41    43   ar
    26    15    19    2
    27    42    43   ar
    28    16    22    2
    29    17    12    1
    30    17    19   ar
    31    17    20   ar
    32    18    19   ar
    33    18    22   ar
    34    18    23    1
    35     9    10    1
    36     9    11    1
    37    10    12    1
    38    11     5    1
    39    33    34    1
    40    33    35    1
    41    34    36    1
    42    35    37    1
    43    37    43    1
    44    20    21   ar
    45    21    22   ar
@<TRIPOS>MOLECULE
*****
 43 45 0 0 0
SMALL
GASTEIGER

@<TRIPOS>ATOM
      1 P          22.2781   73.3799   -5.2916 P.3     1  UNL1        0.2189
      2 O          22.5005   74.9216   -5.7306 O.co2   1  UNL1       -0.4371
      3 O          23.4846   72.7081   -4.7044 O.2     1  UNL1       -0.5170
      4 O          21.6611   72.6840   -6.6156 O.3     1  UNL1       -0.3112
      5 C          20.7700   73.4339   -7.4207 C.3     1  UNL1        0.1811
      6 O          19.9845   71.2011   -7.8398 O.3     1  UNL1       -0.3308
      7 O          18.4331   72.3748  -10.1217 O.3     1  UNL1       -0.3794
      8 O          16.5306   72.0978   -8.1879 O.3     1  UNL1       -0.3779
      9 C          18.7182   72.9353   -8.8399 C.3     1  UNL1        0.1713
     10 C          17.8707   72.2696   -7.7765 C.3     1  UNL1        0.1895
     11 C          20.1239   72.5063   -8.4418 C.3     1  UNL1        0.1764
     12 C          18.5950   70.9492   -7.5768 C.3     1  UNL1        0.2383
     13 H          17.5399   72.6352  -10.3974 H       1  UNL1        0.2105
     14 H          16.1132   72.9666   -8.3010 H       1  UNL1        0.2106
     15 O          16.2793   69.6717   -6.5857 O.2     1  UNL1       -0.2464
     16 O          18.1763   69.0551   -2.4305 O.2     1  UNL1       -0.2670
     17 N          18.4567   70.4450   -6.2398 N.ar    1  UNL1       -0.2551
     18 N          17.2260   69.3667   -4.5168 N.ar    1  UNL1       -0.2743
     19 C          17.2512   69.8199   -5.8424 C.ar    1  UNL1        0.3323
     20 C          19.5074   70.5704   -5.3392 C.ar    1  UNL1        0.0869
     21 C          19.4686   70.1334   -4.0789 C.ar    1  UNL1        0.0795
     22 C          18.2451   69.4692   -3.5838 C.ar    1  UNL1        0.2626
     23 H          16.3964   68.9299   -4.2164 H       1  UNL1        0.1734
     24 O          21.0051   73.4653   -4.2992 O.3     1  UNL1       -0.2703
     25 P          20.8800   73.9930   -2.7762 P.3     1  UNL1        0.2208
     26 O          19.2921   74.2572   -2.6055 O.co2   1  UNL1       -0.4371
     27 O          21.7418   75.1820   -2.4637 O.2     1  UNL1       -0.5170
     28 O          21.1766   72.6937   -1.8671 O.3     1  UNL1       -0.2858
     29 O          22.9312   73.2575   -0.3795 O.3     1  UNL1       -0.3226
     30 O          22.1243   69.3555    0.7123 O.3     1  UNL1       -0.3794
     31 O          22.2008   70.1189   -2.1066 O.3     1  UNL1       -0.3775
     32 O          21.2174   71.5553    2.3824 O.3     1  UNL1       -0.3792
     33 C          21.8185   70.6627    0.2267 C.3     1  UNL1        0.1718
     34 C          22.6370   70.9451   -1.0333 C.3     1  UNL1        0.1968
     35 C          22.1682   71.6691    1.3253 C.3     1  UNL1        0.1723
     36 C          22.5112   72.4110   -1.4504 C.3     1  UNL1        0.2706
     37 C          22.1424   73.1008    0.7980 C.3     1  UNL1        0.1830
     38 H          21.9102   68.6990    0.0308 H       1  UNL1        0.2105
     39 H          22.2777   69.1872   -1.8487 H       1  UNL1        0.2106
     40 H          21.2237   70.6486    2.7268 H       1  UNL1        0.2106
     41 O          23.6994   74.8225    1.1338 O.co2   1  UNL1       -0.5466
     42 O          22.5505   74.0881    2.9613 O.co2   1  UNL1       -0.5466
     43 C          22.7946   74.0342    1.7653 C.2     1  UNL1        0.0799
@<TRIPOS>UNITY_ATOM_ATTR
2 1
charge -1
26 1
charge -1
41 1
charge -1
@<TRIPOS>BOND
     1     1     4    1
     2     1    24    1
     3     1     2    1
     4     1     3    2
     5    25    28    1
     6    25    24    1
     7    25    26    1
     8    25    27    2
     9     6    11    1
    10     6    12    1
    11    29    36    1
    12    29    37    1
    13     7     9    1
    14     7    13    1
    15     8    10    1
    16     8    14    1
    17     4     5    1
    18    28    36    1
    19    30    33    1
    20    30    38    1
    21    31    34    1
    22    31    39    1
    23    32    35    1
    24    32    40    1
    25    41    43   ar
    26    15    19    2
    27    42    43   ar
    28    16    22    2
    29    17    12    1
    30    17    19   ar
    31    17    20   ar
    32    18    19   ar
    33    18    22   ar
    34    18    23    1
    35     9    10    1
    36     9    11    1
    37    10    12    1
    38    11     5    1
    39    33    34    1
    40    33    35    1
    41    34    36    1
    42    35    37    1
    43    37    43    1
    44    20    21   ar
    45    21    22   ar
@<TRIPOS>MOLECULE
*****
 43 45 0 0 0
SMALL
GASTEIGER

@<TRIPOS>ATOM
      1 P          22.0231   71.1810   -2.8197 P.3     1  UNL1        0.2189
      2 O          21.3973   69.7343   -2.4534 O.co2   1  UNL1       -0.4371
      3 O          23.4590   71.1584   -3.2548 O.2     1  UNL1       -0.5170
      4 O          21.6974   72.0859   -1.5185 O.3     1  UNL1       -0.3112
      5 C          22.2484   73.3880   -1.4453 C.3     1  UNL1        0.1811
      6 O          20.4758   74.0477    0.0380 O.3     1  UNL1       -0.3308
      7 O          20.5416   76.6983   -1.3625 O.3     1  UNL1       -0.3794
      8 O          21.9186   77.2046    0.9361 O.3     1  UNL1       -0.3779
      9 C          21.6198   75.8197   -1.0400 C.3     1  UNL1        0.1713
     10 C          21.9207   75.8813    0.4425 C.3     1  UNL1        0.1895
     11 C          21.1256   74.3891   -1.2056 C.3     1  UNL1        0.1764
     12 C          20.8008   75.0375    1.0270 C.3     1  UNL1        0.2383
     13 H          20.8334   77.6185   -1.2640 H       1  UNL1        0.2105
     14 H          22.6498   77.7006    0.5344 H       1  UNL1        0.2106
     15 O          19.0368   74.4283    3.1468 O.2     1  UNL1       -0.2464
     16 O          22.4018   72.4954    5.6337 O.2     1  UNL1       -0.2670
     17 N          21.1893   74.3755    2.2401 N.ar    1  UNL1       -0.2551
     18 N          20.7146   73.4671    4.3839 N.ar    1  UNL1       -0.2743
     19 C          20.2253   74.1165    3.2429 C.ar    1  UNL1        0.3323
     20 C          22.5110   73.9887    2.4265 C.ar    1  UNL1        0.0869
     21 C          22.9624   73.3704    3.5194 C.ar    1  UNL1        0.0795
     22 C          22.0197   73.0636    4.6152 C.ar    1  UNL1        0.2626
     23 H          20.0624   73.2779    5.0967 H       1  UNL1        0.1734
     24 O          20.9930   71.7523   -3.9266 O.3     1  UNL1       -0.2703
     25 P          21.1650   72.9150   -5.0366 P.3     1  UNL1        0.2208
     26 O          22.6346   72.6257   -5.6506 O.co2   1  UNL1       -0.4371
     27 O          20.9801   74.3066   -4.5045 O.2     1  UNL1       -0.5170
     28 O          20.1434   72.5083   -6.2170 O.3     1  UNL1       -0.2858
     29 O          19.0417   70.4118   -6.2219 O.3     1  UNL1       -0.3226
     30 O          18.6986   71.5509  -10.1782 O.3     1  UNL1       -0.3794
     31 O          21.2023   71.9628   -8.7304 O.3     1  UNL1       -0.3775
     32 O          16.4042   71.7348   -8.4025 O.3     1  UNL1       -0.3792
     33 C          18.7857   71.7509   -8.7674 C.3     1  UNL1        0.1718
     34 C          20.1099   71.1870   -8.2514 C.3     1  UNL1        0.1968
     35 C          17.6075   71.0257   -8.1133 C.3     1  UNL1        0.1723
     36 C          20.1404   71.1745   -6.7225 C.3     1  UNL1        0.2706
     37 C          17.7743   70.9454   -6.5986 C.3     1  UNL1        0.1830
     38 H          19.4374   72.0029  -10.6153 H       1  UNL1        0.2105
     39 H          21.1889   71.9753   -9.7000 H       1  UNL1        0.2106
     40 H          16.2863   71.7931   -9.3635 H       1  UNL1        0.2106
     41 O          16.9335   69.9272   -4.6600 O.co2   1  UNL1       -0.5466
     42 O          16.0153   69.2946   -6.6490 O.co2   1  UNL1       -0.5466
     43 C          16.8102   69.9675   -6.0099 C.2     1  UNL1        0.0799
@<TRIPOS>UNITY_ATOM_ATTR
2 1
charge -1
26 1
charge -1
41 1
charge -1
@<TRIPOS>BOND
     1     1     4    1
     2     1    24    1
     3     1     2    1
     4     1     3    2
     5    25    28    1
     6    25    24    1
     7    25    26    1
     8    25    27    2
     9     6    11    1
    10     6    12    1
    11    29    36    1
    12    29    37    1
    13     7     9    1
    14     7    13    1
    15     8    10    1
    16     8    14    1
    17     4     5    1
    18    28    36    1
    19    30    33    1
    20    30    38    1
    21    31    34    1
    22    31    39    1
    23    32    35    1
    24    32    40    1
    25    41    43   ar
    26    15    19    2
    27    42    43   ar
    28    16    22    2
    29    17    12    1
    30    17    19   ar
    31    17    20   ar
    32    18    19   ar
    33    18    22   ar
    34    18    23    1
    35     9    10    1
    36     9    11    1
    37    10    12    1
    38    11     5    1
    39    33    34    1
    40    33    35    1
    41    34    36    1
    42    35    37    1
    43    37    43    1
    44    20    21   ar
    45    21    22   ar
@<TRIPOS>MOLECULE
*****
 43 45 0 0 0
SMALL
GASTEIGER

@<TRIPOS>ATOM
      1 P          22.0211   75.3432   -4.8054 P.3     1  UNL1        0.2189
      2 O          22.0166   76.9364   -4.5215 O.co2   1  UNL1       -0.4371
      3 O          22.8849   74.9065   -5.9521 O.2     1  UNL1       -0.5170
      4 O          20.4523   74.9652   -4.9238 O.3     1  UNL1       -0.3112
      5 C          19.9986   73.7661   -4.3231 C.3     1  UNL1        0.1811
      6 O          17.9740   73.6937   -5.6166 O.3     1  UNL1       -0.3308
      7 O          16.5868   72.9644   -3.0601 O.3     1  UNL1       -0.3794
      8 O          16.8306   70.5552   -4.3139 O.3     1  UNL1       -0.3779
      9 C          17.8875   72.5958   -3.5194 C.3     1  UNL1        0.1713
     10 C          17.7813   71.5555   -4.6143 C.3     1  UNL1        0.1895
     11 C          18.4765   73.7849   -4.2659 C.3     1  UNL1        0.1764
     12 C          17.3835   72.3991   -5.8134 C.3     1  UNL1        0.2383
     13 H          16.1902   72.2203   -2.5799 H       1  UNL1        0.2105
     14 H          17.1297   70.0458   -3.5438 H       1  UNL1        0.2106
     15 O          16.1474   70.2702   -7.1978 O.2     1  UNL1       -0.2464
     16 O          19.3038   70.3793  -10.5547 O.2     1  UNL1       -0.2670
     17 N          17.8611   71.8514   -7.0514 N.ar    1  UNL1       -0.2551
     18 N          17.7212   70.3259   -8.8679 N.ar    1  UNL1       -0.2743
     19 C          17.1666   70.7820   -7.6648 C.ar    1  UNL1        0.3323
     20 C          19.0035   72.3735   -7.6459 C.ar    1  UNL1        0.0869
     21 C          19.5201   71.9282   -8.7929 C.ar    1  UNL1        0.0795
     22 C          18.8553   70.8125   -9.4976 C.ar    1  UNL1        0.2626
     23 H          17.2563   69.5806   -9.3125 H       1  UNL1        0.1734
     24 O          22.4379   74.7205   -3.3732 O.3     1  UNL1       -0.2703
     25 P          23.5980   73.6692   -2.9699 P.3     1  UNL1        0.2208
     26 O          24.8877   74.6168   -2.7269 O.co2   1  UNL1       -0.4371
     27 O          23.8147   72.5757   -3.9755 O.2     1  UNL1       -0.5170
     28 O          23.1887   73.1531   -1.4973 O.3     1  UNL1       -0.2858
     29 O          21.1368   72.0119   -1.8083 O.3     1  UNL1       -0.3226
     30 O          21.8886   71.3142    2.1937 O.3     1  UNL1       -0.3794
     31 O          22.3647   73.9537    1.0357 O.3     1  UNL1       -0.3775
     32 O          22.3178   69.2056    0.2392 O.3     1  UNL1       -0.3792
     33 C          22.2245   71.5408    0.8249 C.3     1  UNL1        0.1718
     34 C          21.6741   72.8962    0.3804 C.3     1  UNL1        0.1968
     35 C          21.6042   70.4158   -0.0068 C.3     1  UNL1        0.1723
     36 C          21.8120   73.0733   -1.1323 C.3     1  UNL1        0.2706
     37 C          21.6692   70.7257   -1.4995 C.3     1  UNL1        0.1830
     38 H          22.2722   72.0171    2.7416 H       1  UNL1        0.2105
     39 H          22.2815   73.8474    1.9960 H       1  UNL1        0.2106
     40 H          22.2843   68.9971    1.1859 H       1  UNL1        0.2106
     41 O          19.5201   69.8297   -1.7826 O.co2   1  UNL1       -0.5466
     42 O          21.1421   69.1153   -3.2171 O.co2   1  UNL1       -0.5466
     43 C          20.7845   69.8022   -2.2720 C.2     1  UNL1        0.0799
@<TRIPOS>UNITY_ATOM_ATTR
2 1
charge -1
26 1
charge -1
41 1
charge -1
@<TRIPOS>BOND
     1     1     4    1
     2     1    24    1
     3     1     2    1
     4     1     3    2
     5    25    28    1
     6    25    24    1
     7    25    26    1
     8    25    27    2
     9     6    11    1
    10     6    12    1
    11    29    36    1
    12    29    37    1
    13     7     9    1
    14     7    13    1
    15     8    10    1
    16     8    14    1
    17     4     5    1
    18    28    36    1
    19    30    33    1
    20    30    38    1
    21    31    34    1
    22    31    39    1
    23    32    35    1
    24    32    40    1
    25    41    43   ar
    26    15    19    2
    27    42    43   ar
    28    16    22    2
    29    17    12    1
    30    17    19   ar
    31    17    20   ar
    32    18    19   ar
    33    18    22   ar
    34    18    23    1
    35     9    10    1
    36     9    11    1
    37    10    12    1
    38    11     5    1
    39    33    34    1
    40    33    35    1
    41    34    36    1
    42    35    37    1
    43    37    43    1
    44    20    21   ar
    45    21    22   ar
@<TRIPOS>MOLECULE
*****
 43 45 0 0 0
SMALL
GASTEIGER

@<TRIPOS>ATOM
      1 P          22.3025   71.8469   -3.0756 P.3     1  UNL1        0.2189
      2 O          21.4407   73.1323   -2.6025 O.co2   1  UNL1       -0.4371
      3 O          23.5366   72.1678   -3.8667 O.2     1  UNL1       -0.5170
      4 O          21.2176   70.9037   -3.8181 O.3     1  UNL1       -0.3112
      5 C          20.2669   71.5108   -4.6736 C.3     1  UNL1        0.1811
      6 O          18.0069   72.3290   -4.6425 O.3     1  UNL1       -0.3308
      7 O          17.2598   69.6760   -3.4614 O.3     1  UNL1       -0.3794
      8 O          16.5429   69.3871   -6.0765 O.3     1  UNL1       -0.3779
      9 C          18.2471   69.9806   -4.4469 C.3     1  UNL1        0.1713
     10 C          17.5857   70.2899   -5.7732 C.3     1  UNL1        0.1895
     11 C          18.8753   71.3193   -4.0843 C.3     1  UNL1        0.1764
     12 C          17.0863   71.7078   -5.5535 C.3     1  UNL1        0.2383
     13 H          16.8444   68.8247   -3.6719 H       1  UNL1        0.2105
     14 H          16.9119   68.4991   -6.2076 H       1  UNL1        0.2106
     15 O          18.4628   71.0085   -7.9184 O.2     1  UNL1       -0.2464
     16 O          16.8636   74.7050  -10.1595 O.2     1  UNL1       -0.2670
     17 N          17.0471   72.4696   -6.7697 N.ar    1  UNL1       -0.2551
     18 N          17.6658   72.8507   -9.0320 N.ar    1  UNL1       -0.2743
     19 C          17.7751   72.0311   -7.9010 C.ar    1  UNL1        0.3323
     20 C          16.2932   73.6351   -6.8340 C.ar    1  UNL1        0.0869
     21 C          16.1986   74.4058   -7.9193 C.ar    1  UNL1        0.0795
     22 C          16.9293   74.0189   -9.1440 C.ar    1  UNL1        0.2626
     23 H          18.1654   72.5670   -9.8315 H       1  UNL1        0.1734
     24 O          22.5766   71.0632   -1.6887 O.3     1  UNL1       -0.2703
     25 P          21.5669   70.2975   -0.6848 P.3     1  UNL1        0.2208
     26 O          22.5303   69.2408    0.0739 O.co2   1  UNL1       -0.4371
     27 O          20.3793   69.6763   -1.3613 O.2     1  UNL1       -0.5170
     28 O          21.1990   71.3935    0.4403 O.3     1  UNL1       -0.2858
     29 O          21.7322   73.6895    0.6715 O.3     1  UNL1       -0.3226
     30 O          21.8347   72.4033    4.5962 O.3     1  UNL1       -0.3794
     31 O          22.9935   70.7676    2.4711 O.3     1  UNL1       -0.3775
     32 O          19.5751   73.9548    3.6277 O.3     1  UNL1       -0.3792
     33 C          21.3883   72.4161    3.2403 C.3     1  UNL1        0.1718
     34 C          22.5646   72.1149    2.3113 C.3     1  UNL1        0.1968
     35 C          20.8176   73.8047    2.9434 C.3     1  UNL1        0.1723
     36 C          22.1799   72.3451    0.8492 C.3     1  UNL1        0.2706
     37 C          20.5784   74.0009    1.4492 C.3     1  UNL1        0.1830
     38 H          22.2016   71.5304    4.8078 H       1  UNL1        0.2105
     39 H          23.2389   70.6145    3.3967 H       1  UNL1        0.2106
     40 H          19.7135   73.8321    4.5799 H       1  UNL1        0.2106
     41 O          20.3206   75.6423   -0.2064 O.co2   1  UNL1       -0.5466
     42 O          20.1829   76.3244    1.9650 O.co2   1  UNL1       -0.5466
     43 C          20.3408   75.4420    1.1347 C.2     1  UNL1        0.0799
@<TRIPOS>UNITY_ATOM_ATTR
2 1
charge -1
26 1
charge -1
41 1
charge -1
@<TRIPOS>BOND
     1     1     4    1
     2     1    24    1
     3     1     2    1
     4     1     3    2
     5    25    28    1
     6    25    24    1
     7    25    26    1
     8    25    27    2
     9     6    11    1
    10     6    12    1
    11    29    36    1
    12    29    37    1
    13     7     9    1
    14     7    13    1
    15     8    10    1
    16     8    14    1
    17     4     5    1
    18    28    36    1
    19    30    33    1
    20    30    38    1
    21    31    34    1
    22    31    39    1
    23    32    35    1
    24    32    40    1
    25    41    43   ar
    26    15    19    2
    27    42    43   ar
    28    16    22    2
    29    17    12    1
    30    17    19   ar
    31    17    20   ar
    32    18    19   ar
    33    18    22   ar
    34    18    23    1
    35     9    10    1
    36     9    11    1
    37    10    12    1
    38    11     5    1
    39    33    34    1
    40    33    35    1
    41    34    36    1
    42    35    37    1
    43    37    43    1
    44    20    21   ar
    45    21    22   ar
@<TRIPOS>MOLECULE
*****
 43 45 0 0 0
SMALL
GASTEIGER

@<TRIPOS>ATOM
      1 P          20.6264   69.9271   -2.9136 P.3     1  UNL1        0.2189
      2 O          19.8283   68.5792   -3.3202 O.co2   1  UNL1       -0.4371
      3 O          22.0867   69.9274   -3.2591 O.2     1  UNL1       -0.5170
      4 O          20.2749   70.1292   -1.3472 O.3     1  UNL1       -0.3112
      5 C          21.1754   70.8676   -0.5420 C.3     1  UNL1        0.1811
      6 O          20.6826   73.0632    0.3030 O.3     1  UNL1       -0.3308
      7 O          22.0640   74.1118   -2.1432 O.3     1  UNL1       -0.3794
      8 O          23.9722   74.3914   -0.2154 O.3     1  UNL1       -0.3779
      9 C          22.3705   72.9609   -1.3557 C.3     1  UNL1        0.1713
     10 C          23.0051   73.3763   -0.0454 C.3     1  UNL1        0.1895
     11 C          21.0572   72.3452   -0.8926 C.3     1  UNL1        0.1764
     12 C          21.8009   73.8438    0.7541 C.3     1  UNL1        0.2383
     13 H          22.8877   74.5224   -2.4506 H       1  UNL1        0.2105
     14 H          24.7183   74.0442   -0.7300 H       1  UNL1        0.2106
     15 O          21.2156   71.4348    2.1071 O.2     1  UNL1       -0.2464
     16 O          22.4873   73.1959    6.1722 O.2     1  UNL1       -0.2670
     17 N          21.9698   73.6453    2.1658 N.ar    1  UNL1       -0.2551
     18 N          21.8486   72.3146    4.1307 N.ar    1  UNL1       -0.2743
     19 C          21.6460   72.3964    2.7467 C.ar    1  UNL1        0.3323
     20 C          22.4524   74.6794    2.9587 C.ar    1  UNL1        0.0869
     21 C          22.6403   74.5863    4.2766 C.ar    1  UNL1        0.0795
     22 C          22.3256   73.3154    4.9615 C.ar    1  UNL1        0.2626
     23 H          21.6283   71.4554    4.5580 H       1  UNL1        0.1734
     24 O          19.7641   71.0901   -3.6324 O.3     1  UNL1       -0.2703
     25 P          18.1827   71.1960   -3.9511 P.3     1  UNL1        0.2208
     26 O          17.8796   72.7787   -3.7972 O.co2   1  UNL1       -0.4371
     27 O          17.3214   70.3151   -3.0931 O.2     1  UNL1       -0.5170
     28 O          18.0642   70.9108   -5.5344 O.3     1  UNL1       -0.2858
     29 O          19.1962   72.7091   -6.5802 O.3     1  UNL1       -0.3226
     30 O          18.1829   70.3553   -9.8207 O.3     1  UNL1       -0.3794
     31 O          16.2706   70.7993   -7.6573 O.3     1  UNL1       -0.3775
     32 O          20.9196   70.3890   -8.8406 O.3     1  UNL1       -0.3792
     33 C          18.5506   70.6207   -8.4671 C.3     1  UNL1        0.1718
     34 C          17.4927   71.5109   -7.8146 C.3     1  UNL1        0.1968
     35 C          19.9085   71.3265   -8.4756 C.3     1  UNL1        0.1723
     36 C          17.9617   72.0040   -6.4450 C.3     1  UNL1        0.2706
     37 C          20.2472   71.8993   -7.1024 C.3     1  UNL1        0.1830
     38 H          17.3228   69.9069   -9.8404 H       1  UNL1        0.2105
     39 H          15.9673   70.4833   -8.5225 H       1  UNL1        0.2106
     40 H          20.7158   70.0168   -9.7129 H       1  UNL1        0.2106
     41 O          20.9530   74.1023   -7.4896 O.co2   1  UNL1       -0.5466
     42 O          22.5665   72.5599   -7.0243 O.co2   1  UNL1       -0.5466
     43 C          21.3927   72.8541   -7.1937 C.2     1  UNL1        0.0799
@<TRIPOS>UNITY_ATOM_ATTR
2 1
charge -1
26 1
charge -1
41 1
charge -1
@<TRIPOS>BOND
     1     1     4    1
     2     1    24    1
     3     1     2    1
     4     1     3    2
     5    25    28    1
     6    25    24    1
     7    25    26    1
     8    25    27    2
     9     6    11    1
    10     6    12    1
    11    29    36    1
    12    29    37    1
    13     7     9    1
    14     7    13    1
    15     8    10    1
    16     8    14    1
    17     4     5    1
    18    28    36    1
    19    30    33    1
    20    30    38    1
    21    31    34    1
    22    31    39    1
    23    32    35    1
    24    32    40    1
    25    41    43   ar
    26    15    19    2
    27    42    43   ar
    28    16    22    2
    29    17    12    1
    30    17    19   ar
    31    17    20   ar
    32    18    19   ar
    33    18    22   ar
    34    18    23    1
    35     9    10    1
    36     9    11    1
    37    10    12    1
    38    11     5    1
    39    33    34    1
    40    33    35    1
    41    34    36    1
    42    35    37    1
    43    37    43    1
    44    20    21   ar
    45    21    22   ar
@<TRIPOS>MOLECULE
*****
 43 45 0 0 0
SMALL
GASTEIGER

@<TRIPOS>ATOM
      1 P          20.0406   71.7588   -2.1796 P.3     1  UNL1        0.2189
      2 O          18.7403   72.6813   -1.9019 O.co2   1  UNL1       -0.4371
      3 O          21.1471   72.4345   -2.9350 O.2     1  UNL1       -0.5170
      4 O          19.4320   70.4265   -2.8671 O.3     1  UNL1       -0.3112
      5 C          19.4451   70.3282   -4.2794 C.3     1  UNL1        0.1811
      6 O          18.7381   72.3660   -5.3401 O.3     1  UNL1       -0.3308
      7 O          16.2527   70.8799   -6.1186 O.3     1  UNL1       -0.3794
      8 O          17.7201   70.8321   -8.4166 O.3     1  UNL1       -0.3779
      9 C          17.5967   70.4069   -6.0258 C.3     1  UNL1        0.1713
     10 C          18.4153   70.9220   -7.1906 C.3     1  UNL1        0.1895
     11 C          18.2574   71.0989   -4.8413 C.3     1  UNL1        0.1764
     12 C          18.6854   72.3582   -6.7755 C.3     1  UNL1        0.2383
     13 H          15.8100   70.4517   -6.8685 H       1  UNL1        0.2105
     14 H          17.5727   69.8984   -8.6370 H       1  UNL1        0.2106
     15 O          18.9734   73.6765   -9.2566 O.2     1  UNL1       -0.2464
     16 O          23.5112   74.2123   -8.6523 O.2     1  UNL1       -0.2670
     17 N          19.9307   72.8526   -7.2911 N.ar    1  UNL1       -0.2551
     18 N          21.2334   73.9412   -8.9537 N.ar    1  UNL1       -0.2743
     19 C          19.9667   73.5001   -8.5487 C.ar    1  UNL1        0.3323
     20 C          21.0979   72.6959   -6.5535 C.ar    1  UNL1        0.0869
     21 C          22.2979   73.1217   -6.9527 C.ar    1  UNL1        0.0795
     22 C          22.4226   73.8077   -8.2554 C.ar    1  UNL1        0.2626
     23 H          21.2839   74.3932   -9.8269 H       1  UNL1        0.1734
     24 O          20.4477   71.2507   -0.7001 O.3     1  UNL1       -0.2703
     25 P          21.8276   70.6264   -0.1346 P.3     1  UNL1        0.2208
     26 O          22.8580   70.8305   -1.3663 O.co2   1  UNL1       -0.4371
     27 O          21.7110   69.2088    0.3456 O.2     1  UNL1       -0.5170
     28 O          22.3216   71.6749    0.9875 O.3     1  UNL1       -0.2858
     29 O          21.2761   72.9020    2.7225 O.3     1  UNL1       -0.3226
     30 O          23.9010   75.6952    1.1812 O.3     1  UNL1       -0.3794
     31 O          22.3731   73.9570   -0.6016 O.3     1  UNL1       -0.3775
     32 O          24.4916   74.3730    3.7018 O.3     1  UNL1       -0.3792
     33 C          23.4465   74.3879    1.5310 C.3     1  UNL1        0.1718
     34 C          22.1401   74.0866    0.7961 C.3     1  UNL1        0.1968
     35 C          23.2257   74.3534    3.0449 C.3     1  UNL1        0.1723
     36 C          21.5045   72.7967    1.3168 C.3     1  UNL1        0.2706
     37 C          22.4751   73.0946    3.4698 C.3     1  UNL1        0.1830
     38 H          24.0481   75.7410    0.2233 H       1  UNL1        0.2105
     39 H          22.7766   74.7718   -0.9387 H       1  UNL1        0.2106
     40 H          24.9796   75.1692    3.4398 H       1  UNL1        0.2106
     41 O          20.6782   73.6046    4.8885 O.co2   1  UNL1       -0.5466
     42 O          22.6455   73.0082    5.8750 O.co2   1  UNL1       -0.5466
     43 C          21.9789   73.2212    4.8734 C.2     1  UNL1        0.0799
@<TRIPOS>UNITY_ATOM_ATTR
2 1
charge -1
26 1
charge -1
41 1
charge -1
@<TRIPOS>BOND
     1     1     4    1
     2     1    24    1
     3     1     2    1
     4     1     3    2
     5    25    28    1
     6    25    24    1
     7    25    26    1
     8    25    27    2
     9     6    11    1
    10     6    12    1
    11    29    36    1
    12    29    37    1
    13     7     9    1
    14     7    13    1
    15     8    10    1
    16     8    14    1
    17     4     5    1
    18    28    36    1
    19    30    33    1
    20    30    38    1
    21    31    34    1
    22    31    39    1
    23    32    35    1
    24    32    40    1
    25    41    43   ar
    26    15    19    2
    27    42    43   ar
    28    16    22    2
    29    17    12    1
    30    17    19   ar
    31    17    20   ar
    32    18    19   ar
    33    18    22   ar
    34    18    23    1
    35     9    10    1
    36     9    11    1
    37    10    12    1
    38    11     5    1
    39    33    34    1
    40    33    35    1
    41    34    36    1
    42    35    37    1
    43    37    43    1
    44    20    21   ar
    45    21    22   ar
@<TRIPOS>MOLECULE
*****
 43 45 0 0 0
SMALL
GASTEIGER

@<TRIPOS>ATOM
      1 P          18.8266   70.6441   -3.8873 P.3     1  UNL1        0.2189
      2 O          19.6883   69.3358   -4.2933 O.co2   1  UNL1       -0.4371
      3 O          17.7148   70.3927   -2.9114 O.2     1  UNL1       -0.5170
      4 O          18.3836   71.2744   -5.3101 O.3     1  UNL1       -0.3112
      5 C          19.3121   71.2505   -6.3787 C.3     1  UNL1        0.1811
      6 O          17.1750   71.0256   -7.4558 O.3     1  UNL1       -0.3308
      7 O          18.6974   70.8982  -10.0360 O.3     1  UNL1       -0.3794
      8 O          17.7992   73.4726  -10.0008 O.3     1  UNL1       -0.3779
      9 C          18.9676   71.6683   -8.8645 C.3     1  UNL1        0.1713
     10 C          17.9955   72.8244   -8.7615 C.3     1  UNL1        0.1895
     11 C          18.5918   70.8270   -7.6523 C.3     1  UNL1        0.1764
     12 C          16.7391   72.1359   -8.2562 C.3     1  UNL1        0.2383
     13 H          18.9297   71.4150  -10.8238 H       1  UNL1        0.2105
     14 H          18.6272   73.8954  -10.2793 H       1  UNL1        0.2106
     15 O          14.9027   74.0169   -9.2886 O.2     1  UNL1       -0.2464
     16 O          13.6736   75.4061   -5.0692 O.2     1  UNL1       -0.2670
     17 N          15.9262   73.0020   -7.4499 N.ar    1  UNL1       -0.2551
     18 N          14.2930   74.7077   -7.1861 N.ar    1  UNL1       -0.2743
     19 C          15.0356   73.9114   -8.0679 C.ar    1  UNL1        0.3323
     20 C          16.0143   72.9445   -6.0643 C.ar    1  UNL1        0.0869
     21 C          15.2999   73.7099   -5.2369 C.ar    1  UNL1        0.0795
     22 C          14.3465   74.6872   -5.8018 C.ar    1  UNL1        0.2626
     23 H          13.6676   75.3500   -7.5931 H       1  UNL1        0.1734
     24 O          19.9571   71.6766   -3.3687 O.3     1  UNL1       -0.2703
     25 P          19.9063   73.2750   -3.1319 P.3     1  UNL1        0.2208
     26 O          18.3275   73.6151   -3.2414 O.co2   1  UNL1       -0.4371
     27 O          20.7752   74.0641   -4.0679 O.2     1  UNL1       -0.5170
     28 O          20.2571   73.4686   -1.5692 O.3     1  UNL1       -0.2858
     29 O          21.9777   72.3495   -0.3875 O.3     1  UNL1       -0.3226
     30 O          23.5123   72.4388   -4.2222 O.3     1  UNL1       -0.3794
     31 O          22.1637   74.7804   -3.1120 O.3     1  UNL1       -0.3775
     32 O          22.4105   69.9722   -3.1485 O.3     1  UNL1       -0.3792
     33 C          22.4881   72.3789   -3.2295 C.3     1  UNL1        0.1718
     34 C          22.5449   73.6347   -2.3593 C.3     1  UNL1        0.1968
     35 C          22.7272   71.1300   -2.3781 C.3     1  UNL1        0.1723
     36 C          21.6197   73.5036   -1.1487 C.3     1  UNL1        0.2706
     37 C          21.8566   71.1351   -1.1248 C.3     1  UNL1        0.1830
     38 H          23.3809   73.2248   -4.7756 H       1  UNL1        0.2105
     39 H          22.7465   74.8695   -3.8819 H       1  UNL1        0.2106
     40 H          22.9577   69.9570   -3.9493 H       1  UNL1        0.2106
     41 O          23.6548   69.8842   -0.2863 O.co2   1  UNL1       -0.5466
     42 O          21.6111   69.5322    0.6617 O.co2   1  UNL1       -0.5466
     43 C          22.3234   70.1031   -0.1505 C.2     1  UNL1        0.0799
@<TRIPOS>UNITY_ATOM_ATTR
2 1
charge -1
26 1
charge -1
41 1
charge -1
@<TRIPOS>BOND
     1     1     4    1
     2     1    24    1
     3     1     2    1
     4     1     3    2
     5    25    28    1
     6    25    24    1
     7    25    26    1
     8    25    27    2
     9     6    11    1
    10     6    12    1
    11    29    36    1
    12    29    37    1
    13     7     9    1
    14     7    13    1
    15     8    10    1
    16     8    14    1
    17     4     5    1
    18    28    36    1
    19    30    33    1
    20    30    38    1
    21    31    34    1
    22    31    39    1
    23    32    35    1
    24    32    40    1
    25    41    43   ar
    26    15    19    2
    27    42    43   ar
    28    16    22    2
    29    17    12    1
    30    17    19   ar
    31    17    20   ar
    32    18    19   ar
    33    18    22   ar
    34    18    23    1
    35     9    10    1
    36     9    11    1
    37    10    12    1
    38    11     5    1
    39    33    34    1
    40    33    35    1
    41    34    36    1
    42    35    37    1
    43    37    43    1
    44    20    21   ar
    45    21    22   ar
@<TRIPOS>MOLECULE
*****
 43 45 0 0 0
SMALL
GASTEIGER

@<TRIPOS>ATOM
      1 P          18.5360   74.4318   -4.4721 P.3     1  UNL1        0.2189
      2 O          17.5310   75.5632   -3.8988 O.co2   1  UNL1       -0.4371
      3 O          19.1001   74.7163   -5.8333 O.2     1  UNL1       -0.5170
      4 O          17.6933   73.0575   -4.3340 O.3     1  UNL1       -0.3112
      5 C          17.3538   72.5999   -3.0380 C.3     1  UNL1        0.1811
      6 O          16.8139   70.7064   -4.4168 O.3     1  UNL1       -0.3308
      7 O          18.1182   69.0291   -2.3009 O.3     1  UNL1       -0.3794
      8 O          20.0535   69.1836   -4.2158 O.3     1  UNL1       -0.3779
      9 C          18.4725   70.3309   -2.7679 C.3     1  UNL1        0.1713
     10 C          19.1195   70.2398   -4.1337 C.3     1  UNL1        0.1895
     11 C          17.1865   71.0862   -3.0743 C.3     1  UNL1        0.1764
     12 C          17.9175   70.0291   -5.0386 C.3     1  UNL1        0.2383
     13 H          18.9238   68.5274   -2.0986 H       1  UNL1        0.2105
     14 H          20.7995   69.3649   -3.6220 H       1  UNL1        0.2106
     15 O          16.0624   69.8085   -7.1567 O.2     1  UNL1       -0.2464
     16 O          18.7943   72.1521  -10.0357 O.2     1  UNL1       -0.2670
     17 N          18.1186   70.5724   -6.3521 N.ar    1  UNL1       -0.2551
     18 N          17.4253   70.9751   -8.5889 N.ar    1  UNL1       -0.2743
     19 C          17.1240   70.4058   -7.3447 C.ar    1  UNL1        0.3323
     20 C          19.2886   71.2622   -6.6457 C.ar    1  UNL1        0.0869
     21 C          19.5615   71.7993   -7.8364 C.ar    1  UNL1        0.0795
     22 C          18.5750   71.6694   -8.9289 C.ar    1  UNL1        0.2626
     23 H          16.7488   70.8703   -9.2966 H       1  UNL1        0.1734
     24 O          19.6408   74.2999   -3.2995 O.3     1  UNL1       -0.2703
     25 P          21.1457   73.7097   -3.3206 P.3     1  UNL1        0.2208
     26 O          22.0635   75.0303   -3.1366 O.co2   1  UNL1       -0.4371
     27 O          21.4709   72.8955   -4.5393 O.2     1  UNL1       -0.5170
     28 O          21.2928   72.9140   -1.9250 O.3     1  UNL1       -0.2858
     29 O          23.0833   73.2312   -0.4075 O.3     1  UNL1       -0.3226
     30 O          21.7917   69.4378    0.5973 O.3     1  UNL1       -0.3794
     31 O          21.9980   70.2381   -2.2048 O.3     1  UNL1       -0.3775
     32 O          21.1383   71.7007    2.3011 O.3     1  UNL1       -0.3792
     33 C          21.6542   70.7813    0.1347 C.3     1  UNL1        0.1718
     34 C          22.5177   70.9847   -1.1106 C.3     1  UNL1        0.1968
     35 C          22.1097   71.7168    1.2568 C.3     1  UNL1        0.1723
     36 C          22.5773   72.4625   -1.4995 C.3     1  UNL1        0.2706
     37 C          22.2659   73.1504    0.7580 C.3     1  UNL1        0.1830
     38 H          21.5080   68.8251   -0.0995 H       1  UNL1        0.2105
     39 H          21.9571   69.2994   -1.9648 H       1  UNL1        0.2106
     40 H          21.0293   70.7938    2.6274 H       1  UNL1        0.2106
     41 O          23.0588   73.3583    2.9556 O.co2   1  UNL1       -0.5466
     42 O          23.5217   75.0657    1.5170 O.co2   1  UNL1       -0.5466
     43 C          23.0143   73.9790    1.7508 C.2     1  UNL1        0.0799
@<TRIPOS>UNITY_ATOM_ATTR
2 1
charge -1
26 1
charge -1
41 1
charge -1
@<TRIPOS>BOND
     1     1     4    1
     2     1    24    1
     3     1     2    1
     4     1     3    2
     5    25    28    1
     6    25    24    1
     7    25    26    1
     8    25    27    2
     9     6    11    1
    10     6    12    1
    11    29    36    1
    12    29    37    1
    13     7     9    1
    14     7    13    1
    15     8    10    1
    16     8    14    1
    17     4     5    1
    18    28    36    1
    19    30    33    1
    20    30    38    1
    21    31    34    1
    22    31    39    1
    23    32    35    1
    24    32    40    1
    25    41    43   ar
    26    15    19    2
    27    42    43   ar
    28    16    22    2
    29    17    12    1
    30    17    19   ar
    31    17    20   ar
    32    18    19   ar
    33    18    22   ar
    34    18    23    1
    35     9    10    1
    36     9    11    1
    37    10    12    1
    38    11     5    1
    39    33    34    1
    40    33    35    1
    41    34    36    1
    42    35    37    1
    43    37    43    1
    44    20    21   ar
    45    21    22   ar
@<TRIPOS>MOLECULE
*****
 43 45 0 0 0
SMALL
GASTEIGER

@<TRIPOS>ATOM
      1 P          22.5006   72.9938   -4.6414 P.3     1  UNL1        0.2189
      2 O          21.5988   74.3168   -4.4060 O.co2   1  UNL1       -0.4371
      3 O          23.8830   73.0579   -4.0612 O.2     1  UNL1       -0.5170
      4 O          22.4196   72.7475   -6.2385 O.3     1  UNL1       -0.3112
      5 C          21.1920   72.9943   -6.8993 C.3     1  UNL1        0.1811
      6 O          19.1218   71.7759   -6.8143 O.3     1  UNL1       -0.3308
      7 O          20.3699   69.8838   -8.7774 O.3     1  UNL1       -0.3794
      8 O          18.7713   71.4204  -10.3647 O.3     1  UNL1       -0.3779
      9 C          20.5126   71.3005   -8.6719 C.3     1  UNL1        0.1713
     10 C          19.2610   71.9919   -9.1696 C.3     1  UNL1        0.1895
     11 C          20.5107   71.6640   -7.1933 C.3     1  UNL1        0.1764
     12 C          18.3105   71.8045   -7.9994 C.3     1  UNL1        0.2383
     13 H          20.3684   69.6275   -9.7133 H       1  UNL1        0.2105
     14 H          19.4117   71.5665  -11.0791 H       1  UNL1        0.2106
     15 O          15.8925   71.6458   -6.5488 O.2     1  UNL1       -0.2464
     16 O          14.7391   75.9718   -7.6441 O.2     1  UNL1       -0.2670
     17 N          17.3599   72.8745   -7.8888 N.ar    1  UNL1       -0.2551
     18 N          15.3199   73.8002   -7.0965 N.ar    1  UNL1       -0.2743
     19 C          16.1758   72.6916   -7.1360 C.ar    1  UNL1        0.3323
     20 C          17.6050   74.0880   -8.5198 C.ar    1  UNL1        0.0869
     21 C          16.7797   75.1356   -8.4729 C.ar    1  UNL1        0.0795
     22 C          15.5201   75.0272   -7.7080 C.ar    1  UNL1        0.2626
     23 H          14.4881   73.6962   -6.5801 H       1  UNL1        0.1734
     24 O          21.5737   71.8119   -4.0440 O.3     1  UNL1       -0.2703
     25 P          21.8838   70.6781   -2.9341 P.3     1  UNL1        0.2208
     26 O          23.4852   70.4733   -3.0520 O.co2   1  UNL1       -0.4371
     27 O          21.0853   69.4178   -3.1014 O.2     1  UNL1       -0.5170
     28 O          21.6716   71.4222   -1.5186 O.3     1  UNL1       -0.2858
     29 O          23.2941   72.8431   -0.5401 O.3     1  UNL1       -0.3226
     30 O          21.0589   71.7284    2.7506 O.3     1  UNL1       -0.3794
     31 O          21.7737   69.7627    0.7112 O.3     1  UNL1       -0.3775
     32 O          20.7433   74.3805    1.6027 O.3     1  UNL1       -0.3792
     33 C          21.2883   72.0445    1.3775 C.3     1  UNL1        0.1718
     34 C          22.3169   71.0752    0.7943 C.3     1  UNL1        0.1968
     35 C          21.8094   73.4814    1.3037 C.3     1  UNL1        0.1723
     36 C          22.7588   71.5205   -0.6005 C.3     1  UNL1        0.2706
     37 C          22.3476   73.8081   -0.0864 C.3     1  UNL1        0.1830
     38 H          20.7272   70.8195    2.8224 H       1  UNL1        0.2105
     39 H          21.4910   69.4739    1.5927 H       1  UNL1        0.2106
     40 H          20.3917   74.1831    2.4850 H       1  UNL1        0.2106
     41 O          24.2213   74.9458    0.7482 O.co2   1  UNL1       -0.5466
     42 O          22.8673   76.0859   -0.6891 O.co2   1  UNL1       -0.5466
     43 C          23.1426   75.0729   -0.0636 C.2     1  UNL1        0.0799
@<TRIPOS>UNITY_ATOM_ATTR
2 1
charge -1
26 1
charge -1
41 1
charge -1
@<TRIPOS>BOND
     1     1     4    1
     2     1    24    1
     3     1     2    1
     4     1     3    2
     5    25    28    1
     6    25    24    1
     7    25    26    1
     8    25    27    2
     9     6    11    1
    10     6    12    1
    11    29    36    1
    12    29    37    1
    13     7     9    1
    14     7    13    1
    15     8    10    1
    16     8    14    1
    17     4     5    1
    18    28    36    1
    19    30    33    1
    20    30    38    1
    21    31    34    1
    22    31    39    1
    23    32    35    1
    24    32    40    1
    25    41    43   ar
    26    15    19    2
    27    42    43   ar
    28    16    22    2
    29    17    12    1
    30    17    19   ar
    31    17    20   ar
    32    18    19   ar
    33    18    22   ar
    34    18    23    1
    35     9    10    1
    36     9    11    1
    37    10    12    1
    38    11     5    1
    39    33    34    1
    40    33    35    1
    41    34    36    1
    42    35    37    1
    43    37    43    1
    44    20    21   ar
    45    21    22   ar
@<TRIPOS>MOLECULE
*****
 43 45 0 0 0
SMALL
GASTEIGER

@<TRIPOS>ATOM
      1 P          22.2386   75.5642   -4.6598 P.3     1  UNL1        0.2189
      2 O          23.7713   75.2374   -5.0635 O.co2   1  UNL1       -0.4371
      3 O          21.7806   76.9556   -4.9853 O.2     1  UNL1       -0.5170
      4 O          22.1491   75.1418   -3.1005 O.3     1  UNL1       -0.3112
      5 C          21.6143   73.8723   -2.7735 C.3     1  UNL1        0.1811
      6 O          23.2400   72.9679   -1.2515 O.3     1  UNL1       -0.3308
      7 O          23.4877   70.6769   -3.1702 O.3     1  UNL1       -0.3794
      8 O          21.8875   69.6477   -1.2167 O.3     1  UNL1       -0.3779
      9 C          22.3309   71.4315   -2.8084 C.3     1  UNL1        0.1713
     10 C          21.8661   71.0451   -1.4203 C.3     1  UNL1        0.1895
     11 C          22.7578   72.8795   -2.6098 C.3     1  UNL1        0.1764
     12 C          22.8612   71.7798   -0.5385 C.3     1  UNL1        0.2383
     13 H          23.2399   69.7480   -3.3025 H       1  UNL1        0.2105
     14 H          21.2370   69.2259   -1.8005 H       1  UNL1        0.2106
     15 O          22.9232   70.1621    1.7758 O.2     1  UNL1       -0.2464
     16 O          20.6714   73.3202    4.2656 O.2     1  UNL1       -0.2670
     17 N          22.2987   72.1548    0.7280 N.ar    1  UNL1       -0.2551
     18 N          21.8007   71.7361    3.0134 N.ar    1  UNL1       -0.2743
     19 C          22.3834   71.2688    1.8280 C.ar    1  UNL1        0.3323
     20 C          21.6737   73.3875    0.8716 C.ar    1  UNL1        0.0869
     21 C          21.1231   73.8191    2.0080 C.ar    1  UNL1        0.0795
     22 C          21.1677   72.9536    3.2047 C.ar    1  UNL1        0.2626
     23 H          21.8454   71.1359    3.7925 H       1  UNL1        0.1734
     24 O          21.4099   74.3916   -5.4021 O.3     1  UNL1       -0.2703
     25 P          21.4628   73.8561   -6.9266 P.3     1  UNL1        0.2208
     26 O          22.5891   72.6947   -6.8717 O.co2   1  UNL1       -0.4371
     27 O          21.7268   74.9259   -7.9462 O.2     1  UNL1       -0.5170
     28 O          20.0718   73.0650   -7.1310 O.3     1  UNL1       -0.2858
     29 O          18.9481   71.3218   -5.9874 O.3     1  UNL1       -0.3226
     30 O          18.2955   70.2946   -9.9354 O.3     1  UNL1       -0.3794
     31 O          20.9144   71.2566   -9.0690 O.3     1  UNL1       -0.3775
     32 O          16.1569   71.4805   -8.3635 O.3     1  UNL1       -0.3792
     33 C          18.5005   71.1828   -8.8367 C.3     1  UNL1        0.1718
     34 C          19.8556   70.8933   -8.1906 C.3     1  UNL1        0.1968
     35 C          17.3712   70.9569   -7.8290 C.3     1  UNL1        0.1723
     36 C          20.0113   71.6625   -6.8780 C.3     1  UNL1        0.2706
     37 C          17.6606   71.6535   -6.5025 C.3     1  UNL1        0.1830
     38 H          19.0015   70.4202  -10.5890 H       1  UNL1        0.2105
     39 H          20.8216   70.7724   -9.9041 H       1  UNL1        0.2106
     40 H          15.9613   71.0455   -9.2081 H       1  UNL1        0.2106
     41 O          15.7203   72.0438   -5.2438 O.co2   1  UNL1       -0.5466
     42 O          16.8687   70.1211   -4.8155 O.co2   1  UNL1       -0.5466
     43 C          16.7363   71.1661   -5.4347 C.2     1  UNL1        0.0799
@<TRIPOS>UNITY_ATOM_ATTR
2 1
charge -1
26 1
charge -1
41 1
charge -1
@<TRIPOS>BOND
     1     1     4    1
     2     1    24    1
     3     1     2    1
     4     1     3    2
     5    25    28    1
     6    25    24    1
     7    25    26    1
     8    25    27    2
     9     6    11    1
    10     6    12    1
    11    29    36    1
    12    29    37    1
    13     7     9    1
    14     7    13    1
    15     8    10    1
    16     8    14    1
    17     4     5    1
    18    28    36    1
    19    30    33    1
    20    30    38    1
    21    31    34    1
    22    31    39    1
    23    32    35    1
    24    32    40    1
    25    41    43   ar
    26    15    19    2
    27    42    43   ar
    28    16    22    2
    29    17    12    1
    30    17    19   ar
    31    17    20   ar
    32    18    19   ar
    33    18    22   ar
    34    18    23    1
    35     9    10    1
    36     9    11    1
    37    10    12    1
    38    11     5    1
    39    33    34    1
    40    33    35    1
    41    34    36    1
    42    35    37    1
    43    37    43    1
    44    20    21   ar
    45    21    22   ar
