@<TRIPOS>MOLECULE
UDP-glaA
 43 45 0 0 0
SMALL
GASTEIGER

@<TRIPOS>ATOM
      1 P          21.7900   73.8111   -5.6979 P.3     1  UNL1        0.2189
      2 O          21.8457   75.3741   -6.1116 O.3     1  UNL1       -0.4371
      3 O          22.6402   72.9034   -6.5377 O.2     1  UNL1       -0.5170
      4 O          20.2092   73.4703   -5.6738 O.3     1  UNL1       -0.3112
      5 C          19.4260   73.9642   -4.6006 C.3     1  UNL1        0.1811
      6 O          17.8890   72.1681   -5.0316 O.3     1  UNL1       -0.3308
      7 O          18.7836   71.0224   -2.4089 O.3     1  UNL1       -0.3794
      8 O          20.1822   69.5350   -4.2165 O.3     1  UNL1       -0.3779
      9 C          19.5407   71.7298   -3.3907 C.3     1  UNL1        0.1713
     10 C          19.8036   70.8437   -4.5900 C.3     1  UNL1        0.1895
     11 C          18.6470   72.8114   -3.9834 C.3     1  UNL1        0.1764
     12 C          18.4664   70.8818   -5.3100 C.3     1  UNL1        0.2383
     13 H          18.6064   71.6400   -1.6791 H       1  UNL1        0.2105
     14 H          20.9832   69.6069   -3.6694 H       1  UNL1        0.2106
     15 O          16.3216   70.3725   -7.0751 O.2     1  UNL1       -0.2464
     16 O          19.1133   70.3120  -10.7413 O.2     1  UNL1       -0.2670
     17 N          18.6040   70.7291   -6.7302 N.ar    1  UNL1       -0.2551
     18 N          17.7132   70.3422   -8.8995 N.ar    1  UNL1       -0.2743
     19 C          17.4634   70.4744   -7.5272 C.ar    1  UNL1        0.3323
     20 C          19.8589   70.8315   -7.3201 C.ar    1  UNL1        0.0869
     21 C          20.0806   70.7035   -8.6301 C.ar    1  UNL1        0.0795
     22 C          18.9431   70.4356   -9.5323 C.ar    1  UNL1        0.2626
     23 H          16.9080   70.1582   -9.4918 H       1  UNL1        0.1734
     24 O          22.1797   73.8375   -4.1286 O.3     1  UNL1       -0.2703
     25 P          23.3899   73.1295   -3.3245 P.3     1  UNL1        0.2208
     26 O          24.6943   73.9457   -3.8231 O.3     1  UNL1       -0.4371
     27 O          23.4751   71.6432   -3.5235 O.2     1  UNL1       -0.5170
     28 O          23.1841   73.5860   -1.7906 O.3     1  UNL1       -0.2858
     29 O          21.6145   72.0343   -0.9372 O.3     1  UNL1       -0.3226
     30 O          22.6098   74.2212    2.4549 O.3     1  UNL1       -0.3794
     31 O          22.2279   75.5566   -0.1097 O.3     1  UNL1       -0.3775
     32 O          21.1602   71.9375    1.8952 O.3     1  UNL1       -0.3792
     33 C          22.7843   73.5820    1.1934 C.3     1  UNL1        0.1718
     34 C          21.8568   74.2059    0.1452 C.3     1  UNL1        0.1968
     35 C          22.4734   72.0906    1.3467 C.3     1  UNL1        0.1723
     36 C          21.9115   73.4154   -1.1679 C.3     1  UNL1        0.2706
     37 C          22.5162   71.4141   -0.0218 C.3     1  UNL1        0.1830
     38 H          23.2131   73.7936    3.0864 H       1  UNL1        0.2105
     39 H          21.6208   75.9054   -0.7839 H       1  UNL1        0.2106
     40 H          20.5101   72.1481    1.2037 H       1  UNL1        0.2106
     41 O          20.8479   69.8215   -0.4505 O.co2   1  UNL1       -0.5466
     42 O          22.7689   69.0759    0.5246 O.co2   1  UNL1       -0.5466
     43 C          22.0917   69.9825    0.0620 C.2     1  UNL1        0.0799
@<TRIPOS>UNITY_ATOM_ATTR
41 1
charge -1
@<TRIPOS>BOND
     1     1     4    1
     2     1    24    1
     3     1     2    1
     4     1     3    2
     5    25    28    1
     6    25    24    1
     7    25    26    1
     8    25    27    2
     9     6    11    1
    10     6    12    1
    11    29    36    1
    12    29    37    1
    13     7     9    1
    14     7    13    1
    15     8    10    1
    16     8    14    1
    17     4     5    1
    18    28    36    1
    19    30    33    1
    20    30    38    1
    21    31    34    1
    22    31    39    1
    23    32    35    1
    24    32    40    1
    25    41    43   ar
    26    15    19    2
    27    42    43   ar
    28    16    22    2
    29    17    12    1
    30    17    19   ar
    31    17    20   ar
    32    18    19   ar
    33    18    22   ar
    34    18    23    1
    35     9    10    1
    36     9    11    1
    37    10    12    1
    38    11     5    1
    39    33    34    1
    40    33    35    1
    41    34    36    1
    42    35    37    1
    43    37    43    1
    44    20    21   ar
    45    21    22   ar
@<TRIPOS>MOLECULE
UDP-glaA
 43 45 0 0 0
SMALL
GASTEIGER

@<TRIPOS>ATOM
      1 P          23.0221   72.0740   -3.2712 P.3     1  UNL1        0.2189
      2 O          23.7180   72.9964   -4.4035 O.3     1  UNL1       -0.4371
      3 O          23.5860   70.6887   -3.1487 O.2     1  UNL1       -0.5170
      4 O          21.4437   72.1627   -3.6123 O.3     1  UNL1       -0.3112
      5 C          20.6564   70.9907   -3.4862 C.3     1  UNL1        0.1811
      6 O          18.7559   71.9768   -4.5770 O.3     1  UNL1       -0.3308
      7 O          17.0957   70.6911   -2.4364 O.3     1  UNL1       -0.3794
      8 O          16.7502   69.0049   -4.5514 O.3     1  UNL1       -0.3779
      9 C          18.2718   70.2037   -3.0822 C.3     1  UNL1        0.1713
     10 C          17.9482   69.7508   -4.4904 C.3     1  UNL1        0.1895
     11 C          19.1953   71.3886   -3.3328 C.3     1  UNL1        0.1764
     12 C          17.8515   71.0728   -5.2328 C.3     1  UNL1        0.2383
     13 H          17.3585   71.0051   -1.5544 H       1  UNL1        0.2105
     14 H          16.8547   68.2349   -3.9662 H       1  UNL1        0.2106
     15 O          16.0573   70.4729   -7.3296 O.2     1  UNL1       -0.2464
     16 O          19.4069   70.6448  -10.4902 O.2     1  UNL1       -0.2670
     17 N          18.2273   70.9553   -6.6128 N.ar    1  UNL1       -0.2551
     18 N          17.7265   70.5584   -8.9020 N.ar    1  UNL1       -0.2743
     19 C          17.2492   70.6497   -7.5879 C.ar    1  UNL1        0.3323
     20 C          19.5530   71.1419   -6.9884 C.ar    1  UNL1        0.0869
     21 C          19.9922   71.0519   -8.2457 C.ar    1  UNL1        0.0795
     22 C          19.0350   70.7353   -9.3242 C.ar    1  UNL1        0.2626
     23 H          17.0411   70.3390   -9.6197 H       1  UNL1        0.1734
     24 O          23.1563   72.9763   -1.9360 O.3     1  UNL1       -0.2703
     25 P          22.7040   74.4986   -1.6352 P.3     1  UNL1        0.2208
     26 O          21.1998   74.5625   -2.2263 O.3     1  UNL1       -0.4371
     27 O          23.6335   75.5388   -2.1918 O.2     1  UNL1       -0.5170
     28 O          22.5164   74.5607   -0.0336 O.3     1  UNL1       -0.2858
     29 O          21.3295   72.5764    0.4696 O.3     1  UNL1       -0.3226
     30 O          22.1296   74.0966    4.2549 O.3     1  UNL1       -0.3794
     31 O          21.3264   75.8717    2.0847 O.3     1  UNL1       -0.3775
     32 O          21.0993   71.7561    3.2106 O.3     1  UNL1       -0.3792
     33 C          22.3330   73.8056    2.8750 C.3     1  UNL1        0.1718
     34 C          21.2342   74.4523    2.0248 C.3     1  UNL1        0.1968
     35 C          22.3191   72.2867    2.6818 C.3     1  UNL1        0.1723
     36 C          21.3450   74.0048    0.5620 C.3     1  UNL1        0.2706
     37 C          22.3930   71.9581    1.1923 C.3     1  UNL1        0.1830
     38 H          22.8448   73.6665    4.7539 H       1  UNL1        0.2105
     39 H          20.6192   76.2355    1.5258 H       1  UNL1        0.2106
     40 H          20.3748   71.9834    2.6035 H       1  UNL1        0.2106
     41 O          23.2183   69.8006    1.6020 O.co2   1  UNL1       -0.5466
     42 O          21.3847   69.9729    0.2584 O.co2   1  UNL1       -0.5466
     43 C          22.2518   70.4893    0.9484 C.2     1  UNL1        0.0799
@<TRIPOS>UNITY_ATOM_ATTR
41 1
charge -1
@<TRIPOS>BOND
     1     1     4    1
     2     1    24    1
     3     1     2    1
     4     1     3    2
     5    25    28    1
     6    25    24    1
     7    25    26    1
     8    25    27    2
     9     6    11    1
    10     6    12    1
    11    29    36    1
    12    29    37    1
    13     7     9    1
    14     7    13    1
    15     8    10    1
    16     8    14    1
    17     4     5    1
    18    28    36    1
    19    30    33    1
    20    30    38    1
    21    31    34    1
    22    31    39    1
    23    32    35    1
    24    32    40    1
    25    41    43   ar
    26    15    19    2
    27    42    43   ar
    28    16    22    2
    29    17    12    1
    30    17    19   ar
    31    17    20   ar
    32    18    19   ar
    33    18    22   ar
    34    18    23    1
    35     9    10    1
    36     9    11    1
    37    10    12    1
    38    11     5    1
    39    33    34    1
    40    33    35    1
    41    34    36    1
    42    35    37    1
    43    37    43    1
    44    20    21   ar
    45    21    22   ar
@<TRIPOS>MOLECULE
UDP-glaA
 43 45 0 0 0
SMALL
GASTEIGER

@<TRIPOS>ATOM
      1 P          21.3260   73.9667   -5.1527 P.3     1  UNL1        0.2189
      2 O          19.8286   74.0537   -4.5465 O.3     1  UNL1       -0.4371
      3 O          22.1878   75.1659   -4.8854 O.2     1  UNL1       -0.5170
      4 O          21.0950   73.6003   -6.7108 O.3     1  UNL1       -0.3112
      5 C          19.9845   74.1695   -7.3832 C.3     1  UNL1        0.1811
      6 O          19.6494   71.8777   -8.0232 O.3     1  UNL1       -0.3308
      7 O          17.9573   72.9444  -10.2571 O.3     1  UNL1       -0.3794
      8 O          16.0970   72.1394   -8.4331 O.3     1  UNL1       -0.3779
      9 C          18.0998   73.4282   -8.9217 C.3     1  UNL1        0.1713
     10 C          17.3699   72.5210   -7.9538 C.3     1  UNL1        0.1895
     11 C          19.5521   73.2362   -8.5050 C.3     1  UNL1        0.1764
     12 C          18.3268   71.3466   -7.8390 C.3     1  UNL1        0.2383
     13 H          18.4721   73.5330  -10.8351 H       1  UNL1        0.2105
     14 H          15.5849   72.9527   -8.5831 H       1  UNL1        0.2106
     15 O          16.0883   69.9036   -6.8998 O.2     1  UNL1       -0.2464
     16 O          18.1651   68.9267   -2.9034 O.2     1  UNL1       -0.2670
     17 N          18.2555   70.7046   -6.5576 N.ar    1  UNL1       -0.2551
     18 N          17.1237   69.4185   -4.9101 N.ar    1  UNL1       -0.2743
     19 C          17.0845   70.0058   -6.1817 C.ar    1  UNL1        0.3323
     20 C          19.3382   70.7711   -5.6878 C.ar    1  UNL1        0.0869
     21 C          19.3603   70.2055   -4.4789 C.ar    1  UNL1        0.0795
     22 C          18.1770   69.4578   -4.0096 C.ar    1  UNL1        0.2626
     23 H          16.2925   68.9114   -4.6185 H       1  UNL1        0.1734
     24 O          21.8876   72.5823   -4.5335 O.3     1  UNL1       -0.2703
     25 P          23.0666   72.3002   -3.4644 P.3     1  UNL1        0.2208
     26 O          24.2979   73.1848   -4.0277 O.3     1  UNL1       -0.4371
     27 O          23.3862   70.8457   -3.2694 O.2     1  UNL1       -0.5170
     28 O          22.5944   73.0644   -2.1238 O.3     1  UNL1       -0.2858
     29 O          21.6301   71.3555   -0.8013 O.3     1  UNL1       -0.3226
     30 O          21.5118   74.6189    1.7708 O.3     1  UNL1       -0.3794
     31 O          20.8686   74.9364   -1.0561 O.3     1  UNL1       -0.3775
     32 O          21.0292   71.9051    1.9511 O.3     1  UNL1       -0.3792
     33 C          21.9994   73.7592    0.7444 C.3     1  UNL1        0.1718
     34 C          20.9911   73.6755   -0.4065 C.3     1  UNL1        0.1968
     35 C          22.2363   72.3668    1.3357 C.3     1  UNL1        0.1723
     36 C          21.4258   72.6231   -1.4340 C.3     1  UNL1        0.2706
     37 C          22.6230   71.3955    0.2225 C.3     1  UNL1        0.1830
     38 H          22.1792   74.6398    2.4777 H       1  UNL1        0.2105
     39 H          20.2292   74.8321   -1.7808 H       1  UNL1        0.2106
     40 H          20.4010   71.6577    1.2516 H       1  UNL1        0.2106
     41 O          23.4235   69.9668    1.9023 O.co2   1  UNL1       -0.5466
     42 O          22.2771   69.0063    0.1818 O.co2   1  UNL1       -0.5466
     43 C          22.7380   69.9948    0.7340 C.2     1  UNL1        0.0799
@<TRIPOS>UNITY_ATOM_ATTR
41 1
charge -1
@<TRIPOS>BOND
     1     1     4    1
     2     1    24    1
     3     1     2    1
     4     1     3    2
     5    25    28    1
     6    25    24    1
     7    25    26    1
     8    25    27    2
     9     6    11    1
    10     6    12    1
    11    29    36    1
    12    29    37    1
    13     7     9    1
    14     7    13    1
    15     8    10    1
    16     8    14    1
    17     4     5    1
    18    28    36    1
    19    30    33    1
    20    30    38    1
    21    31    34    1
    22    31    39    1
    23    32    35    1
    24    32    40    1
    25    41    43   ar
    26    15    19    2
    27    42    43   ar
    28    16    22    2
    29    17    12    1
    30    17    19   ar
    31    17    20   ar
    32    18    19   ar
    33    18    22   ar
    34    18    23    1
    35     9    10    1
    36     9    11    1
    37    10    12    1
    38    11     5    1
    39    33    34    1
    40    33    35    1
    41    34    36    1
    42    35    37    1
    43    37    43    1
    44    20    21   ar
    45    21    22   ar
@<TRIPOS>MOLECULE
UDP-glaA
 43 45 0 0 0
SMALL
GASTEIGER

@<TRIPOS>ATOM
      1 P          22.6923   71.4952   -2.6550 P.3     1  UNL1        0.2189
      2 O          23.0438   72.9599   -3.2452 O.3     1  UNL1       -0.4371
      3 O          23.5187   70.3732   -3.2121 O.2     1  UNL1       -0.5170
      4 O          21.0943   71.3631   -2.8660 O.3     1  UNL1       -0.3112
      5 C          20.4534   72.2549   -3.7621 C.3     1  UNL1        0.1811
      6 O          18.3143   72.3519   -4.8526 O.3     1  UNL1       -0.3308
      7 O          17.2289   70.9432   -2.4383 O.3     1  UNL1       -0.3794
      8 O          17.4553   68.9225   -4.2552 O.3     1  UNL1       -0.3779
      9 C          18.4916   70.7846   -3.0849 C.3     1  UNL1        0.1713
     10 C          18.3239   70.0288   -4.3862 C.3     1  UNL1        0.1895
     11 C          18.9469   72.1550   -3.5688 C.3     1  UNL1        0.1764
     12 C          17.7673   71.1025   -5.3056 C.3     1  UNL1        0.2383
     13 H          17.3799   71.4651   -1.6318 H       1  UNL1        0.2105
     14 H          17.8269   68.3379   -3.5722 H       1  UNL1        0.2106
     15 O          15.9574   70.4494   -7.3727 O.2     1  UNL1       -0.2464
     16 O          19.3153   70.3408  -10.5273 O.2     1  UNL1       -0.2670
     17 N          18.1410   70.8985   -6.6760 N.ar    1  UNL1       -0.2551
     18 N          17.6308   70.3952   -8.9421 N.ar    1  UNL1       -0.2743
     19 C          17.1549   70.5730   -7.6363 C.ar    1  UNL1        0.3323
     20 C          19.4727   71.0211   -7.0569 C.ar    1  UNL1        0.0869
     21 C          19.9105   70.8490   -8.3061 C.ar    1  UNL1        0.0795
     22 C          18.9450   70.5062   -9.3690 C.ar    1  UNL1        0.2626
     23 H          16.9395   70.1600   -9.6491 H       1  UNL1        0.1734
     24 O          22.8315   71.7053   -1.0576 O.3     1  UNL1       -0.2703
     25 P          22.4882   70.7184    0.1755 P.3     1  UNL1        0.2208
     26 O          23.7501   69.7070    0.2039 O.3     1  UNL1       -0.4371
     27 O          21.1524   70.0402    0.0682 O.2     1  UNL1       -0.5170
     28 O          22.6677   71.6325    1.4932 O.3     1  UNL1       -0.2858
     29 O          21.8297   72.3699    3.5797 O.3     1  UNL1       -0.3226
     30 O          21.1046   75.6560    1.1394 O.3     1  UNL1       -0.3794
     31 O          20.6429   72.9495    0.1558 O.3     1  UNL1       -0.3775
     32 O          20.9569   75.0919    3.8394 O.3     1  UNL1       -0.3792
     33 C          21.7736   74.5033    1.6436 C.3     1  UNL1        0.1718
     34 C          20.8743   73.2683    1.5239 C.3     1  UNL1        0.1968
     35 C          22.1391   74.7450    3.1107 C.3     1  UNL1        0.1723
     36 C          21.5153   72.0602    2.2180 C.3     1  UNL1        0.2706
     37 C          22.7290   73.4699    3.7094 C.3     1  UNL1        0.1830
     38 H          21.7085   76.4119    1.2372 H       1  UNL1        0.2105
     39 H          20.0787   72.1583    0.1303 H       1  UNL1        0.2106
     40 H          20.4199   74.2900    3.9566 H       1  UNL1        0.2106
     41 O          24.2234   74.1117    5.4001 O.co2   1  UNL1       -0.5466
     42 O          22.1806   73.3421    6.0573 O.co2   1  UNL1       -0.5466
     43 C          22.9810   73.6198    5.1760 C.2     1  UNL1        0.0799
@<TRIPOS>UNITY_ATOM_ATTR
41 1
charge -1
@<TRIPOS>BOND
     1     1     4    1
     2     1    24    1
     3     1     2    1
     4     1     3    2
     5    25    28    1
     6    25    24    1
     7    25    26    1
     8    25    27    2
     9     6    11    1
    10     6    12    1
    11    29    36    1
    12    29    37    1
    13     7     9    1
    14     7    13    1
    15     8    10    1
    16     8    14    1
    17     4     5    1
    18    28    36    1
    19    30    33    1
    20    30    38    1
    21    31    34    1
    22    31    39    1
    23    32    35    1
    24    32    40    1
    25    41    43   ar
    26    15    19    2
    27    42    43   ar
    28    16    22    2
    29    17    12    1
    30    17    19   ar
    31    17    20   ar
    32    18    19   ar
    33    18    22   ar
    34    18    23    1
    35     9    10    1
    36     9    11    1
    37    10    12    1
    38    11     5    1
    39    33    34    1
    40    33    35    1
    41    34    36    1
    42    35    37    1
    43    37    43    1
    44    20    21   ar
    45    21    22   ar
@<TRIPOS>MOLECULE
UDP-glaA
 43 45 0 0 0
SMALL
GASTEIGER

@<TRIPOS>ATOM
      1 P          22.7847   71.6367   -2.1952 P.3     1  UNL1        0.2189
      2 O          23.2579   73.1771   -2.3387 O.3     1  UNL1       -0.4371
      3 O          23.4454   70.6805   -3.1445 O.2     1  UNL1       -0.5170
      4 O          21.1718   71.7146   -2.2850 O.3     1  UNL1       -0.3112
      5 C          20.5512   71.4842   -3.5384 C.3     1  UNL1        0.1811
      6 O          18.6097   72.2644   -4.7200 O.3     1  UNL1       -0.3308
      7 O          17.0030   71.0866   -2.4789 O.3     1  UNL1       -0.3794
      8 O          16.7665   69.2021   -4.4355 O.3     1  UNL1       -0.3779
      9 C          18.2089   70.6081   -3.0742 C.3     1  UNL1        0.1713
     10 C          17.9222   70.0145   -4.4373 C.3     1  UNL1        0.1895
     11 C          19.0695   71.8143   -3.4265 C.3     1  UNL1        0.1764
     12 C          17.7608   71.2577   -5.2955 C.3     1  UNL1        0.2383
     13 H          17.2410   71.4919   -1.6276 H       1  UNL1        0.2105
     14 H          16.9073   68.4943   -3.7834 H       1  UNL1        0.2106
     15 O          16.0239   70.3574   -7.3321 O.2     1  UNL1       -0.2464
     16 O          19.3811   70.4483  -10.4880 O.2     1  UNL1       -0.2670
     17 N          18.1540   71.0381   -6.6580 N.ar    1  UNL1       -0.2551
     18 N          17.6969   70.4028   -8.9022 N.ar    1  UNL1       -0.2743
     19 C          17.2045   70.5840   -7.6030 C.ar    1  UNL1        0.3323
     20 C          19.4685   71.2720   -7.0464 C.ar    1  UNL1        0.0869
     21 C          19.9224   71.0949   -8.2891 C.ar    1  UNL1        0.0795
     22 C          18.9952   70.6217   -9.3360 C.ar    1  UNL1        0.2626
     23 H          17.0320   70.0762   -9.5982 H       1  UNL1        0.1734
     24 O          23.0464   71.3215   -0.6308 O.3     1  UNL1       -0.2703
     25 P          22.1560   70.5171    0.4521 P.3     1  UNL1        0.2208
     26 O          23.2575   69.9574    1.4959 O.3     1  UNL1       -0.4371
     27 O          21.2710   69.4590   -0.1421 O.2     1  UNL1       -0.5170
     28 O          21.3675   71.6652    1.2670 O.3     1  UNL1       -0.2858
     29 O          21.7897   73.9930    1.2163 O.3     1  UNL1       -0.3226
     30 O          20.1682   73.4843    5.0099 O.3     1  UNL1       -0.3794
     31 O          22.0630   71.5445    3.9361 O.3     1  UNL1       -0.3775
     32 O          20.8787   75.6150    3.4021 O.3     1  UNL1       -0.3792
     33 C          20.3739   73.2626    3.6175 C.3     1  UNL1        0.1718
     34 C          21.8173   72.8203    3.3542 C.3     1  UNL1        0.1968
     35 C          20.0772   74.5600    2.8604 C.3     1  UNL1        0.1723
     36 C          22.0964   72.7456    1.8479 C.3     1  UNL1        0.2706
     37 C          20.4281   74.3846    1.3845 C.3     1  UNL1        0.1830
     38 H          19.2446   73.7642    5.1291 H       1  UNL1        0.2105
     39 H          22.9830   71.3029    3.7359 H       1  UNL1        0.2106
     40 H          21.7970   75.4865    3.1099 H       1  UNL1        0.2106
     41 O          20.0064   75.4250   -0.6756 O.co2   1  UNL1       -0.5466
     42 O          20.3777   76.7837    1.1169 O.co2   1  UNL1       -0.5466
     43 C          20.2765   75.6670    0.6298 C.2     1  UNL1        0.0799
@<TRIPOS>UNITY_ATOM_ATTR
41 1
charge -1
@<TRIPOS>BOND
     1     1     4    1
     2     1    24    1
     3     1     2    1
     4     1     3    2
     5    25    28    1
     6    25    24    1
     7    25    26    1
     8    25    27    2
     9     6    11    1
    10     6    12    1
    11    29    36    1
    12    29    37    1
    13     7     9    1
    14     7    13    1
    15     8    10    1
    16     8    14    1
    17     4     5    1
    18    28    36    1
    19    30    33    1
    20    30    38    1
    21    31    34    1
    22    31    39    1
    23    32    35    1
    24    32    40    1
    25    41    43   ar
    26    15    19    2
    27    42    43   ar
    28    16    22    2
    29    17    12    1
    30    17    19   ar
    31    17    20   ar
    32    18    19   ar
    33    18    22   ar
    34    18    23    1
    35     9    10    1
    36     9    11    1
    37    10    12    1
    38    11     5    1
    39    33    34    1
    40    33    35    1
    41    34    36    1
    42    35    37    1
    43    37    43    1
    44    20    21   ar
    45    21    22   ar
@<TRIPOS>MOLECULE
UDP-glaA
 43 45 0 0 0
SMALL
GASTEIGER

@<TRIPOS>ATOM
      1 P          22.9606   71.9136   -3.0058 P.3     1  UNL1        0.2189
      2 O          23.6877   70.4805   -3.1922 O.3     1  UNL1       -0.4371
      3 O          22.7732   72.3478   -1.5815 O.2     1  UNL1       -0.5170
      4 O          21.6090   71.7821   -3.8841 O.3     1  UNL1       -0.3112
      5 C          20.7230   70.7107   -3.6077 C.3     1  UNL1        0.1811
      6 O          18.9195   71.8778   -4.6846 O.3     1  UNL1       -0.3308
      7 O          17.1680   70.8023   -2.5013 O.3     1  UNL1       -0.3794
      8 O          16.6126   69.1348   -4.5862 O.3     1  UNL1       -0.3779
      9 C          18.2756   70.1852   -3.1572 C.3     1  UNL1        0.1713
     10 C          17.8834   69.7508   -4.5537 C.3     1  UNL1        0.1895
     11 C          19.3146   71.2626   -3.4386 C.3     1  UNL1        0.1764
     12 C          17.9144   71.0659   -5.3138 C.3     1  UNL1        0.2383
     13 H          17.4767   71.0982   -1.6279 H       1  UNL1        0.2105
     14 H          16.6448   68.3657   -3.9914 H       1  UNL1        0.2106
     15 O          16.0492   70.4815   -7.3521 O.2     1  UNL1       -0.2464
     16 O          19.3300   70.4162  -10.5879 O.2     1  UNL1       -0.2670
     17 N          18.2534   70.8916   -6.6973 N.ar    1  UNL1       -0.2551
     18 N          17.6842   70.4488   -8.9620 N.ar    1  UNL1       -0.2743
     19 C          17.2413   70.5995   -7.6413 C.ar    1  UNL1        0.3323
     20 C          19.5768   71.0101   -7.1069 C.ar    1  UNL1        0.0869
     21 C          19.9831   70.8641   -8.3700 C.ar    1  UNL1        0.0795
     22 C          18.9890   70.5570   -9.4175 C.ar    1  UNL1        0.2626
     23 H          16.9739   70.2378   -9.6577 H       1  UNL1        0.1734
     24 O          23.8776   72.9038   -3.8967 O.3     1  UNL1       -0.2703
     25 P          24.0029   74.5153   -3.9012 P.3     1  UNL1        0.2208
     26 O          25.6011   74.7632   -3.9200 O.3     1  UNL1       -0.4371
     27 O          23.2838   75.1922   -2.7696 O.2     1  UNL1       -0.5170
     28 O          23.5033   74.9602   -5.3696 O.3     1  UNL1       -0.2858
     29 O          21.5141   76.0388   -6.0620 O.3     1  UNL1       -0.3226
     30 O          22.3261   73.5518   -9.2923 O.3     1  UNL1       -0.3794
     31 O          22.7008   72.6021   -6.5603 O.3     1  UNL1       -0.3775
     32 O          20.5500   75.5908   -8.7281 O.3     1  UNL1       -0.3792
     33 C          22.5843   74.4078   -8.1828 C.3     1  UNL1        0.1718
     34 C          22.0127   73.8023   -6.8963 C.3     1  UNL1        0.1968
     35 C          21.9424   75.7720   -8.4499 C.3     1  UNL1        0.1723
     36 C          22.1330   74.7914   -5.7303 C.3     1  UNL1        0.2706
     37 C          22.0853   76.6573   -7.2138 C.3     1  UNL1        0.1830
     38 H          22.7022   73.9748  -10.0829 H       1  UNL1        0.2105
     39 H          22.3120   72.2616   -5.7371 H       1  UNL1        0.2106
     40 H          20.0938   75.3792   -7.8961 H       1  UNL1        0.2106
     41 O          22.2100   78.9997   -7.2459 O.co2   1  UNL1       -0.5466
     42 O          20.1643   78.0638   -7.6151 O.co2   1  UNL1       -0.5466
     43 C          21.3594   77.9540   -7.3826 C.2     1  UNL1        0.0799
@<TRIPOS>UNITY_ATOM_ATTR
41 1
charge -1
@<TRIPOS>BOND
     1     1     4    1
     2     1    24    1
     3     1     2    1
     4     1     3    2
     5    25    28    1
     6    25    24    1
     7    25    26    1
     8    25    27    2
     9     6    11    1
    10     6    12    1
    11    29    36    1
    12    29    37    1
    13     7     9    1
    14     7    13    1
    15     8    10    1
    16     8    14    1
    17     4     5    1
    18    28    36    1
    19    30    33    1
    20    30    38    1
    21    31    34    1
    22    31    39    1
    23    32    35    1
    24    32    40    1
    25    41    43   ar
    26    15    19    2
    27    42    43   ar
    28    16    22    2
    29    17    12    1
    30    17    19   ar
    31    17    20   ar
    32    18    19   ar
    33    18    22   ar
    34    18    23    1
    35     9    10    1
    36     9    11    1
    37    10    12    1
    38    11     5    1
    39    33    34    1
    40    33    35    1
    41    34    36    1
    42    35    37    1
    43    37    43    1
    44    20    21   ar
    45    21    22   ar
@<TRIPOS>MOLECULE
UDP-glaA
 43 45 0 0 0
SMALL
GASTEIGER

@<TRIPOS>ATOM
      1 P          22.6216   70.5104   -0.0200 P.3     1  UNL1        0.2189
      2 O          21.4654   69.4519    0.3803 O.3     1  UNL1       -0.4371
      3 O          23.9464   69.8984   -0.3701 O.2     1  UNL1       -0.5170
      4 O          22.6348   71.5577    1.2122 O.3     1  UNL1       -0.3112
      5 C          22.7003   71.0485    2.5334 C.3     1  UNL1        0.1811
      6 O          23.2470   73.1497    3.5631 O.3     1  UNL1       -0.3308
      7 O          20.3282   73.3787    4.2108 O.3     1  UNL1       -0.3794
      8 O          20.5836   74.9989    2.0324 O.3     1  UNL1       -0.3779
      9 C          20.9560   72.8247    3.0547 C.3     1  UNL1        0.1713
     10 C          21.4956   73.9289    2.1702 C.3     1  UNL1        0.1895
     11 C          22.2316   72.1238    3.5034 C.3     1  UNL1        0.1764
     12 C          22.7622   74.3321    2.9058 C.3     1  UNL1        0.2383
     13 H          20.0338   72.6357    4.7648 H       1  UNL1        0.2105
     14 H          19.7629   74.6373    1.6559 H       1  UNL1        0.2106
     15 O          25.0928   75.6881    3.7453 O.2     1  UNL1       -0.2464
     16 O          26.5906   76.1747   -0.5858 O.2     1  UNL1       -0.2670
     17 N          23.7781   74.8235    2.0193 N.ar    1  UNL1       -0.2551
     18 N          25.8369   75.9300    1.5880 N.ar    1  UNL1       -0.2743
     19 C          24.9094   75.4920    2.5426 C.ar    1  UNL1        0.3323
     20 C          23.6477   74.6415    0.6469 C.ar    1  UNL1        0.0869
     21 C          24.5410   75.0645   -0.2503 C.ar    1  UNL1        0.0795
     22 C          25.7506   75.7726    0.2134 C.ar    1  UNL1        0.2626
     23 H          26.6580   76.4137    1.9414 H       1  UNL1        0.1734
     24 O          21.9367   71.3613   -1.2125 O.3     1  UNL1       -0.2703
     25 P          22.4105   71.6234   -2.7355 P.3     1  UNL1        0.2208
     26 O          23.4751   70.4353   -3.0026 O.3     1  UNL1       -0.4371
     27 O          22.9468   73.0039   -2.9848 O.2     1  UNL1       -0.5170
     28 O          21.1290   71.2334   -3.6353 O.3     1  UNL1       -0.2858
     29 O          19.1557   72.4301   -4.1582 O.3     1  UNL1       -0.3226
     30 O          17.7675   68.5186   -3.9298 O.3     1  UNL1       -0.3794
     31 O          19.7156   69.5143   -2.0013 O.3     1  UNL1       -0.3775
     32 O          16.7522   70.9639   -4.7168 O.3     1  UNL1       -0.3792
     33 C          18.6689   69.5902   -4.1934 C.3     1  UNL1        0.1718
     34 C          18.9916   70.3472   -2.9007 C.3     1  UNL1        0.1968
     35 C          18.0270   70.5387   -5.2096 C.3     1  UNL1        0.1723
     36 C          19.8215   71.6022   -3.1989 C.3     1  UNL1        0.2706
     37 C          18.9154   71.7664   -5.3981 C.3     1  UNL1        0.1830
     38 H          17.5899   68.0702   -4.7742 H       1  UNL1        0.2105
     39 H          19.9049   70.0378   -1.2045 H       1  UNL1        0.2106
     40 H          16.8963   71.6021   -3.9977 H       1  UNL1        0.2106
     41 O          18.5659   72.5429   -7.5841 O.co2   1  UNL1       -0.5466
     42 O          17.5579   73.6995   -5.8980 O.co2   1  UNL1       -0.5466
     43 C          18.2659   72.7810   -6.2845 C.2     1  UNL1        0.0799
@<TRIPOS>UNITY_ATOM_ATTR
41 1
charge -1
@<TRIPOS>BOND
     1     1     4    1
     2     1    24    1
     3     1     2    1
     4     1     3    2
     5    25    28    1
     6    25    24    1
     7    25    26    1
     8    25    27    2
     9     6    11    1
    10     6    12    1
    11    29    36    1
    12    29    37    1
    13     7     9    1
    14     7    13    1
    15     8    10    1
    16     8    14    1
    17     4     5    1
    18    28    36    1
    19    30    33    1
    20    30    38    1
    21    31    34    1
    22    31    39    1
    23    32    35    1
    24    32    40    1
    25    41    43   ar
    26    15    19    2
    27    42    43   ar
    28    16    22    2
    29    17    12    1
    30    17    19   ar
    31    17    20   ar
    32    18    19   ar
    33    18    22   ar
    34    18    23    1
    35     9    10    1
    36     9    11    1
    37    10    12    1
    38    11     5    1
    39    33    34    1
    40    33    35    1
    41    34    36    1
    42    35    37    1
    43    37    43    1
    44    20    21   ar
    45    21    22   ar
@<TRIPOS>MOLECULE
UDP-glaA
 43 45 0 0 0
SMALL
GASTEIGER

@<TRIPOS>ATOM
      1 P          21.9253   75.6782   -5.9360 P.3     1  UNL1        0.2189
      2 O          20.9298   76.3820   -4.8725 O.3     1  UNL1       -0.4371
      3 O          22.4647   76.5911   -6.9980 O.2     1  UNL1       -0.5170
      4 O          21.0883   74.4001   -6.4665 O.3     1  UNL1       -0.3112
      5 C          19.6819   74.5186   -6.5983 C.3     1  UNL1        0.1811
      6 O          19.3587   72.2747   -7.3950 O.3     1  UNL1       -0.3308
      7 O          17.5598   73.4715   -9.4742 O.3     1  UNL1       -0.3794
      8 O          15.7888   72.4971   -7.6440 O.3     1  UNL1       -0.3779
      9 C          17.7486   73.8573   -8.1128 C.3     1  UNL1        0.1713
     10 C          17.0737   72.8666   -7.1878 C.3     1  UNL1        0.1895
     11 C          19.2196   73.6631   -7.7692 C.3     1  UNL1        0.1764
     12 C          18.0536   71.7057   -7.1993 C.3     1  UNL1        0.2383
     13 H          18.0409   74.1114  -10.0261 H       1  UNL1        0.2105
     14 H          15.2577   73.3091   -7.7122 H       1  UNL1        0.2106
     15 O          16.3297   69.5375   -6.6493 O.2     1  UNL1       -0.2464
     16 O          18.1085   68.9543   -2.4381 O.2     1  UNL1       -0.2670
     17 N          18.0450   70.9688   -5.9680 N.ar    1  UNL1       -0.2551
     18 N          17.2163   69.2488   -4.5525 N.ar    1  UNL1       -0.2743
     19 C          17.1387   69.8972   -5.7921 C.ar    1  UNL1        0.3323
     20 C          18.9282   71.3103   -4.9497 C.ar    1  UNL1        0.0869
     21 C          18.9903   70.6820   -3.7736 C.ar    1  UNL1        0.0795
     22 C          18.0772   69.5524   -3.5092 C.ar    1  UNL1        0.2626
     23 H          16.5735   68.4756   -4.4036 H       1  UNL1        0.1734
     24 O          23.0514   75.0072   -4.9891 O.3     1  UNL1       -0.2703
     25 P          22.9152   74.1236   -3.6425 P.3     1  UNL1        0.2208
     26 O          23.5103   75.0984   -2.4972 O.3     1  UNL1       -0.4371
     27 O          23.5794   72.7787   -3.7185 O.2     1  UNL1       -0.5170
     28 O          21.3295   74.0683   -3.3484 O.3     1  UNL1       -0.2858
     29 O          20.6824   72.5623   -1.6417 O.3     1  UNL1       -0.3226
     30 O          24.0006   74.4144    0.0431 O.3     1  UNL1       -0.3794
     31 O          22.0505   75.9635   -1.4746 O.3     1  UNL1       -0.3775
     32 O          22.3624   72.2800    0.6683 O.3     1  UNL1       -0.3792
     33 C          23.1644   73.8631   -0.9704 C.3     1  UNL1        0.1718
     34 C          21.8365   74.6246   -1.0404 C.3     1  UNL1        0.1968
     35 C          22.9063   72.3880   -0.6513 C.3     1  UNL1        0.1723
     36 C          20.8648   73.9346   -2.0059 C.3     1  UNL1        0.2706
     37 C          21.8986   71.8165   -1.6463 C.3     1  UNL1        0.1830
     38 H          24.8265   73.9013    0.0533 H       1  UNL1        0.2105
     39 H          21.1837   76.4017   -1.5126 H       1  UNL1        0.2106
     40 H          21.4395   72.5850    0.6480 H       1  UNL1        0.2106
     41 O          21.6180   69.6049   -2.3772 O.co2   1  UNL1       -0.5466
     42 O          21.1667   70.0391   -0.1852 O.co2   1  UNL1       -0.5466
     43 C          21.5178   70.4135   -1.2947 C.2     1  UNL1        0.0799
@<TRIPOS>UNITY_ATOM_ATTR
41 1
charge -1
@<TRIPOS>BOND
     1     1     4    1
     2     1    24    1
     3     1     2    1
     4     1     3    2
     5    25    28    1
     6    25    24    1
     7    25    26    1
     8    25    27    2
     9     6    11    1
    10     6    12    1
    11    29    36    1
    12    29    37    1
    13     7     9    1
    14     7    13    1
    15     8    10    1
    16     8    14    1
    17     4     5    1
    18    28    36    1
    19    30    33    1
    20    30    38    1
    21    31    34    1
    22    31    39    1
    23    32    35    1
    24    32    40    1
    25    41    43   ar
    26    15    19    2
    27    42    43   ar
    28    16    22    2
    29    17    12    1
    30    17    19   ar
    31    17    20   ar
    32    18    19   ar
    33    18    22   ar
    34    18    23    1
    35     9    10    1
    36     9    11    1
    37    10    12    1
    38    11     5    1
    39    33    34    1
    40    33    35    1
    41    34    36    1
    42    35    37    1
    43    37    43    1
    44    20    21   ar
    45    21    22   ar
@<TRIPOS>MOLECULE
UDP-glaA
 43 45 0 0 0
SMALL
GASTEIGER

@<TRIPOS>ATOM
      1 P          22.2170   72.2483   -4.1582 P.3     1  UNL1        0.2189
      2 O          22.8188   72.9774   -5.4711 O.3     1  UNL1       -0.4371
      3 O          23.2040   71.4261   -3.3825 O.2     1  UNL1       -0.5170
      4 O          20.9221   71.4538   -4.7127 O.3     1  UNL1       -0.3112
      5 C          20.1785   72.0277   -5.7743 C.3     1  UNL1        0.1811
      6 O          18.2522   70.9410   -6.7139 O.3     1  UNL1       -0.3308
      7 O          20.1191   69.8312   -8.7813 O.3     1  UNL1       -0.3794
      8 O          18.9248   71.8951  -10.1041 O.3     1  UNL1       -0.3779
      9 C          20.1322   71.1093   -8.1456 C.3     1  UNL1        0.1713
     10 C          19.0245   71.9817   -8.6976 C.3     1  UNL1        0.1895
     11 C          19.6966   70.9187   -6.6987 C.3     1  UNL1        0.1764
     12 C          17.8012   71.4243   -7.9900 C.3     1  UNL1        0.2383
     13 H          20.8182   69.2954   -8.3693 H       1  UNL1        0.2105
     14 H          19.7822   72.1651  -10.4755 H       1  UNL1        0.2106
     15 O          16.1988   71.6076   -5.6718 O.2     1  UNL1       -0.2464
     16 O          13.9424   75.2813   -7.3002 O.2     1  UNL1       -0.2670
     17 N          16.7879   72.4188   -7.7813 N.ar    1  UNL1       -0.2551
     18 N          15.0759   73.4365   -6.4844 N.ar    1  UNL1       -0.2743
     19 C          16.0382   72.4228   -6.5819 C.ar    1  UNL1        0.3323
     20 C          16.5451   73.3768   -8.7595 C.ar    1  UNL1        0.0869
     21 C          15.6244   74.3371   -8.6514 C.ar    1  UNL1        0.0795
     22 C          14.7978   74.4110   -7.4304 C.ar    1  UNL1        0.2626
     23 H          14.5245   73.4584   -5.6309 H       1  UNL1        0.1734
     24 O          21.5637   73.4743   -3.3304 O.3     1  UNL1       -0.2703
     25 P          22.2476   74.6288   -2.4293 P.3     1  UNL1        0.2208
     26 O          21.0853   75.7477   -2.3150 O.3     1  UNL1       -0.4371
     27 O          23.5511   75.1420   -2.9711 O.2     1  UNL1       -0.5170
     28 O          22.3457   73.9893   -0.9510 O.3     1  UNL1       -0.2858
     29 O          21.4068   72.0042   -0.0695 O.3     1  UNL1       -0.3226
     30 O          21.3630   74.5293    3.2323 O.3     1  UNL1       -0.3794
     31 O          20.6534   75.5352    0.5883 O.3     1  UNL1       -0.3775
     32 O          20.8742   71.8543    2.7470 O.3     1  UNL1       -0.3792
     33 C          21.8225   73.9514    2.0136 C.3     1  UNL1        0.1718
     34 C          20.7866   74.1530    0.9025 C.3     1  UNL1        0.1968
     35 C          22.0680   72.4565    2.2360 C.3     1  UNL1        0.1723
     36 C          21.1923   73.3886   -0.3637 C.3     1  UNL1        0.2706
     37 C          22.4241   71.7918    0.9081 C.3     1  UNL1        0.1830
     38 H          22.0473   74.3761    3.9059 H       1  UNL1        0.2105
     39 H          19.9964   75.6121   -0.1240 H       1  UNL1        0.2106
     40 H          20.2284   71.7865    2.0235 H       1  UNL1        0.2106
     41 O          21.4815   69.6835    0.4949 O.co2   1  UNL1       -0.5466
     42 O          23.4757   69.7309    1.5985 O.co2   1  UNL1       -0.5466
     43 C          22.5458   70.3082    1.0541 C.2     1  UNL1        0.0799
@<TRIPOS>UNITY_ATOM_ATTR
41 1
charge -1
@<TRIPOS>BOND
     1     1     4    1
     2     1    24    1
     3     1     2    1
     4     1     3    2
     5    25    28    1
     6    25    24    1
     7    25    26    1
     8    25    27    2
     9     6    11    1
    10     6    12    1
    11    29    36    1
    12    29    37    1
    13     7     9    1
    14     7    13    1
    15     8    10    1
    16     8    14    1
    17     4     5    1
    18    28    36    1
    19    30    33    1
    20    30    38    1
    21    31    34    1
    22    31    39    1
    23    32    35    1
    24    32    40    1
    25    41    43   ar
    26    15    19    2
    27    42    43   ar
    28    16    22    2
    29    17    12    1
    30    17    19   ar
    31    17    20   ar
    32    18    19   ar
    33    18    22   ar
    34    18    23    1
    35     9    10    1
    36     9    11    1
    37    10    12    1
    38    11     5    1
    39    33    34    1
    40    33    35    1
    41    34    36    1
    42    35    37    1
    43    37    43    1
    44    20    21   ar
    45    21    22   ar
@<TRIPOS>MOLECULE
UDP-glaA
 43 45 0 0 0
SMALL
GASTEIGER

@<TRIPOS>ATOM
      1 P          22.5133   72.3676   -3.7690 P.3     1  UNL1        0.2189
      2 O          23.0133   73.7312   -3.0563 O.3     1  UNL1       -0.4371
      3 O          23.3935   71.1740   -3.5397 O.2     1  UNL1       -0.5170
      4 O          22.2943   72.7929   -5.3139 O.3     1  UNL1       -0.3112
      5 C          22.0245   74.1525   -5.6105 C.3     1  UNL1        0.1811
      6 O          21.4696   73.2150   -7.7523 O.3     1  UNL1       -0.3308
      7 O          21.8599   75.9767   -8.8532 O.3     1  UNL1       -0.3794
      8 O          19.1457   75.7854   -8.6736 O.3     1  UNL1       -0.3779
      9 C          21.3151   75.5740   -7.5968 C.3     1  UNL1        0.1713
     10 C          19.9227   75.0097   -7.7847 C.3     1  UNL1        0.1895
     11 C          22.0913   74.3543   -7.1176 C.3     1  UNL1        0.1764
     12 C          20.2153   73.6203   -8.3249 C.3     1  UNL1        0.2383
     13 H          22.7642   76.2940   -8.6887 H       1  UNL1        0.2105
     14 H          19.0972   76.6863   -8.3101 H       1  UNL1        0.2106
     15 O          19.0390   71.7807  -10.1159 O.2     1  UNL1       -0.2464
     16 O          16.3501   70.0101   -6.8184 O.2     1  UNL1       -0.2670
     17 N          19.2061   72.6670   -7.9614 N.ar    1  UNL1       -0.2551
     18 N          17.7004   70.9006   -8.4728 N.ar    1  UNL1       -0.2743
     19 C          18.6801   71.7882   -8.9370 C.ar    1  UNL1        0.3323
     20 C          18.7472   72.6094   -6.6501 C.ar    1  UNL1        0.0869
     21 C          17.8130   71.7570   -6.2230 C.ar    1  UNL1        0.0795
     22 C          17.2117   70.8061   -7.1790 C.ar    1  UNL1        0.2626
     23 H          17.3076   70.2598   -9.1570 H       1  UNL1        0.1734
     24 O          21.0012   72.2048   -3.2193 O.3     1  UNL1       -0.2703
     25 P          20.3021   71.0171   -2.3749 P.3     1  UNL1        0.2208
     26 O          21.2169   69.7285   -2.7196 O.3     1  UNL1       -0.4371
     27 O          18.8396   70.8343   -2.6638 O.2     1  UNL1       -0.5170
     28 O          20.6398   71.3573   -0.8341 O.3     1  UNL1       -0.2858
     29 O          21.5228   73.1969    0.3641 O.3     1  UNL1       -0.3226
     30 O          23.5049   69.9875    2.1107 O.3     1  UNL1       -0.3794
     31 O          23.0855   70.0776   -0.7741 O.3     1  UNL1       -0.3775
     32 O          23.2513   72.6942    2.5998 O.3     1  UNL1       -0.3792
     33 C          22.4471   70.7082    1.4845 C.3     1  UNL1        0.1718
     34 C          22.8766   71.1868    0.0936 C.3     1  UNL1        0.1968
     35 C          22.0790   71.9084    2.3610 C.3     1  UNL1        0.1723
     36 C          21.8120   72.1066   -0.5171 C.3     1  UNL1        0.2706
     37 C          21.0465   72.7726    1.6404 C.3     1  UNL1        0.1830
     38 H          23.1902   69.7068    2.9868 H       1  UNL1        0.2105
     39 H          23.3457   70.4291   -1.6422 H       1  UNL1        0.2106
     40 H          23.4718   73.1756    1.7844 H       1  UNL1        0.2106
     41 O          19.6146   73.8905    3.1249 O.co2   1  UNL1       -0.5466
     42 O          21.4425   75.0348    2.3858 O.co2   1  UNL1       -0.5466
     43 C          20.7533   74.0253    2.4032 C.2     1  UNL1        0.0799
@<TRIPOS>UNITY_ATOM_ATTR
41 1
charge -1
@<TRIPOS>BOND
     1     1     4    1
     2     1    24    1
     3     1     2    1
     4     1     3    2
     5    25    28    1
     6    25    24    1
     7    25    26    1
     8    25    27    2
     9     6    11    1
    10     6    12    1
    11    29    36    1
    12    29    37    1
    13     7     9    1
    14     7    13    1
    15     8    10    1
    16     8    14    1
    17     4     5    1
    18    28    36    1
    19    30    33    1
    20    30    38    1
    21    31    34    1
    22    31    39    1
    23    32    35    1
    24    32    40    1
    25    41    43   ar
    26    15    19    2
    27    42    43   ar
    28    16    22    2
    29    17    12    1
    30    17    19   ar
    31    17    20   ar
    32    18    19   ar
    33    18    22   ar
    34    18    23    1
    35     9    10    1
    36     9    11    1
    37    10    12    1
    38    11     5    1
    39    33    34    1
    40    33    35    1
    41    34    36    1
    42    35    37    1
    43    37    43    1
    44    20    21   ar
    45    21    22   ar
@<TRIPOS>MOLECULE
UDP-glaA
 43 45 0 0 0
SMALL
GASTEIGER

@<TRIPOS>ATOM
      1 P          21.4576   75.9941   -3.5465 P.3     1  UNL1        0.2189
      2 O          20.6769   74.6112   -3.2374 O.3     1  UNL1       -0.4371
      3 O          20.8980   77.2043   -2.8578 O.2     1  UNL1       -0.5170
      4 O          21.5039   76.0629   -5.1616 O.3     1  UNL1       -0.3112
      5 C          21.5624   74.8483   -5.8900 C.3     1  UNL1        0.1811
      6 O          20.9429   73.9805   -8.0435 O.3     1  UNL1       -0.3308
      7 O          20.8287   76.8355   -8.9532 O.3     1  UNL1       -0.3794
      8 O          18.1993   76.2309   -8.5573 O.3     1  UNL1       -0.3779
      9 C          20.4702   76.2749   -7.6902 C.3     1  UNL1        0.1713
     10 C          19.1606   75.5232   -7.8020 C.3     1  UNL1        0.1895
     11 C          21.4544   75.1557   -7.3768 C.3     1  UNL1        0.1764
     12 C          19.5946   74.2310   -8.4729 C.3     1  UNL1        0.2383
     13 H          21.6903   77.2724   -8.8422 H       1  UNL1        0.2105
     14 H          18.0583   77.0889   -8.1213 H       1  UNL1        0.2106
     15 O          19.0062   72.0465  -10.1633 O.2     1  UNL1       -0.2464
     16 O          16.4202   70.0112   -6.9370 O.2     1  UNL1       -0.2670
     17 N          18.7709   73.1165   -8.1004 N.ar    1  UNL1       -0.2551
     18 N          17.7185   71.0347   -8.5558 N.ar    1  UNL1       -0.2743
     19 C          18.5369   72.0711   -9.0241 C.ar    1  UNL1        0.3323
     20 C          18.2043   73.0668   -6.8316 C.ar    1  UNL1        0.0869
     21 C          17.4266   72.0715   -6.4000 C.ar    1  UNL1        0.0795
     22 C          17.1321   70.9414   -7.3031 C.ar    1  UNL1        0.2626
     23 H          17.5360   70.2726   -9.2031 H       1  UNL1        0.1734
     24 O          22.9865   75.6426   -3.1540 O.3     1  UNL1       -0.2703
     25 P          23.7037   74.2269   -2.8471 P.3     1  UNL1        0.2208
     26 O          24.2682   74.4153   -1.3431 O.3     1  UNL1       -0.4371
     27 O          24.7449   73.8326   -3.8552 O.2     1  UNL1       -0.5170
     28 O          22.4880   73.1763   -2.6985 O.3     1  UNL1       -0.2858
     29 O          22.9135   71.0166   -1.8301 O.3     1  UNL1       -0.3226
     30 O          19.2124   70.5087   -3.6530 O.3     1  UNL1       -0.3794
     31 O          21.2928   72.0960   -4.9407 O.3     1  UNL1       -0.3775
     32 O          20.8568   69.0222   -2.0049 O.3     1  UNL1       -0.3792
     33 C          20.2612   71.1654   -2.9466 C.3     1  UNL1        0.1718
     34 C          21.5195   71.2517   -3.8170 C.3     1  UNL1        0.1968
     35 C          20.5626   70.3815   -1.6664 C.3     1  UNL1        0.1723
     36 C          22.7022   71.8002   -3.0092 C.3     1  UNL1        0.2706
     37 C          21.7775   70.9877   -0.9674 C.3     1  UNL1        0.1830
     38 H          18.4389   70.4746   -3.0647 H       1  UNL1        0.2105
     39 H          22.1170   72.1273   -5.4551 H       1  UNL1        0.2106
     40 H          21.7424   68.9881   -2.4045 H       1  UNL1        0.2106
     41 O          21.7234   70.7330    1.3641 O.co2   1  UNL1       -0.5466
     42 O          22.8476   69.1477    0.1724 O.co2   1  UNL1       -0.5466
     43 C          22.1875   70.1756    0.2198 C.2     1  UNL1        0.0799
@<TRIPOS>UNITY_ATOM_ATTR
41 1
charge -1
@<TRIPOS>BOND
     1     1     4    1
     2     1    24    1
     3     1     2    1
     4     1     3    2
     5    25    28    1
     6    25    24    1
     7    25    26    1
     8    25    27    2
     9     6    11    1
    10     6    12    1
    11    29    36    1
    12    29    37    1
    13     7     9    1
    14     7    13    1
    15     8    10    1
    16     8    14    1
    17     4     5    1
    18    28    36    1
    19    30    33    1
    20    30    38    1
    21    31    34    1
    22    31    39    1
    23    32    35    1
    24    32    40    1
    25    41    43   ar
    26    15    19    2
    27    42    43   ar
    28    16    22    2
    29    17    12    1
    30    17    19   ar
    31    17    20   ar
    32    18    19   ar
    33    18    22   ar
    34    18    23    1
    35     9    10    1
    36     9    11    1
    37    10    12    1
    38    11     5    1
    39    33    34    1
    40    33    35    1
    41    34    36    1
    42    35    37    1
    43    37    43    1
    44    20    21   ar
    45    21    22   ar
@<TRIPOS>MOLECULE
UDP-glaA
 43 45 0 0 0
SMALL
GASTEIGER

@<TRIPOS>ATOM
      1 P          23.0338   72.1987   -3.3394 P.3     1  UNL1        0.2189
      2 O          23.5101   70.6530   -3.3007 O.3     1  UNL1       -0.4371
      3 O          24.1203   73.1884   -3.6427 O.2     1  UNL1       -0.5170
      4 O          22.2675   72.4058   -1.9304 O.3     1  UNL1       -0.3112
      5 C          22.1780   73.7148   -1.3940 C.3     1  UNL1        0.1811
      6 O          20.2752   73.4002    0.0395 O.3     1  UNL1       -0.3308
      7 O          19.1139   75.8288   -1.2813 O.3     1  UNL1       -0.3794
      8 O          20.0452   76.8235    1.0807 O.3     1  UNL1       -0.3779
      9 C          20.4719   75.5466   -0.9437 C.3     1  UNL1        0.1713
     10 C          20.6799   75.6783    0.5503 C.3     1  UNL1        0.1895
     11 C          20.7127   74.0597   -1.1691 C.3     1  UNL1        0.1764
     12 C          20.0770   74.3837    1.0684 C.3     1  UNL1        0.2383
     13 H          19.0195   75.6940   -2.2397 H       1  UNL1        0.2105
     14 H          20.4093   77.5994    0.6208 H       1  UNL1        0.2106
     15 O          21.0832   71.7742    1.4602 O.2     1  UNL1       -0.2464
     16 O          22.4712   72.7556    5.7438 O.2     1  UNL1       -0.2670
     17 N          20.7066   73.9303    2.2756 N.ar    1  UNL1       -0.2551
     18 N          21.7732   72.2645    3.5932 N.ar    1  UNL1       -0.2743
     19 C          21.1767   72.5997    2.3705 C.ar    1  UNL1        0.3323
     20 C          20.8529   74.8007    3.3501 C.ar    1  UNL1        0.0869
     21 C          21.4243   74.4661    4.5091 C.ar    1  UNL1        0.0795
     22 C          21.9411   73.0950    4.6904 C.ar    1  UNL1        0.2626
     23 H          22.1181   71.3127    3.6843 H       1  UNL1        0.1734
     24 O          21.8232   72.1780   -4.4115 O.3     1  UNL1       -0.2703
     25 P          21.4788   73.1690   -5.6411 P.3     1  UNL1        0.2208
     26 O          22.5293   72.7191   -6.7857 O.3     1  UNL1       -0.4371
     27 O          21.5322   74.6283   -5.2896 O.2     1  UNL1       -0.5170
     28 O          20.0444   72.6657   -6.1825 O.3     1  UNL1       -0.2858
     29 O          18.5027   71.2423   -5.0888 O.3     1  UNL1       -0.3226
     30 O          17.7227   70.4566   -9.0956 O.3     1  UNL1       -0.3794
     31 O          20.4645   70.7809   -8.1557 O.3     1  UNL1       -0.3775
     32 O          16.5795   69.8092   -6.6657 O.3     1  UNL1       -0.3792
     33 C          18.0818   71.2079   -7.9393 C.3     1  UNL1        0.1718
     34 C          19.3428   70.6243   -7.2931 C.3     1  UNL1        0.1968
     35 C          16.9186   71.1717   -6.9443 C.3     1  UNL1        0.1723
     36 C          19.6385   71.3165   -5.9568 C.3     1  UNL1        0.2706
     37 C          17.3363   71.8503   -5.6416 C.3     1  UNL1        0.1830
     38 H          16.9203   70.8590   -9.4694 H       1  UNL1        0.2105
     39 H          21.2383   70.4067   -7.7018 H       1  UNL1        0.2106
     40 H          17.2682   69.4303   -6.0936 H       1  UNL1        0.2106
     41 O          16.4988   70.6385   -3.8157 O.co2   1  UNL1       -0.5466
     42 O          15.3359   72.4931   -4.4521 O.co2   1  UNL1       -0.5466
     43 C          16.2758   71.7245   -4.5945 C.2     1  UNL1        0.0799
@<TRIPOS>UNITY_ATOM_ATTR
41 1
charge -1
@<TRIPOS>BOND
     1     1     4    1
     2     1    24    1
     3     1     2    1
     4     1     3    2
     5    25    28    1
     6    25    24    1
     7    25    26    1
     8    25    27    2
     9     6    11    1
    10     6    12    1
    11    29    36    1
    12    29    37    1
    13     7     9    1
    14     7    13    1
    15     8    10    1
    16     8    14    1
    17     4     5    1
    18    28    36    1
    19    30    33    1
    20    30    38    1
    21    31    34    1
    22    31    39    1
    23    32    35    1
    24    32    40    1
    25    41    43   ar
    26    15    19    2
    27    42    43   ar
    28    16    22    2
    29    17    12    1
    30    17    19   ar
    31    17    20   ar
    32    18    19   ar
    33    18    22   ar
    34    18    23    1
    35     9    10    1
    36     9    11    1
    37    10    12    1
    38    11     5    1
    39    33    34    1
    40    33    35    1
    41    34    36    1
    42    35    37    1
    43    37    43    1
    44    20    21   ar
    45    21    22   ar
@<TRIPOS>MOLECULE
UDP-glaA
 43 45 0 0 0
SMALL
GASTEIGER

@<TRIPOS>ATOM
      1 P          22.4913   73.0895   -4.5946 P.3     1  UNL1        0.2189
      2 O          22.7308   73.7922   -6.0320 O.3     1  UNL1       -0.4371
      3 O          23.6993   72.4188   -4.0089 O.2     1  UNL1       -0.5170
      4 O          21.2063   72.1375   -4.8354 O.3     1  UNL1       -0.3112
      5 C          20.6794   71.4190   -3.7330 C.3     1  UNL1        0.1811
      6 O          18.7068   72.2142   -4.8513 O.3     1  UNL1       -0.3308
      7 O          17.1665   71.0731   -2.5455 O.3     1  UNL1       -0.3794
      8 O          16.8380   69.1771   -4.4776 O.3     1  UNL1       -0.3779
      9 C          18.3447   70.5753   -3.1793 C.3     1  UNL1        0.1713
     10 C          18.0026   69.9752   -4.5267 C.3     1  UNL1        0.1895
     11 C          19.2067   71.7682   -3.5714 C.3     1  UNL1        0.1764
     12 C          17.8259   71.2138   -5.3884 C.3     1  UNL1        0.2383
     13 H          17.4394   71.4818   -1.7065 H       1  UNL1        0.2105
     14 H          16.9933   68.4725   -3.8253 H       1  UNL1        0.2106
     15 O          15.9986   70.3563   -7.3635 O.2     1  UNL1       -0.2464
     16 O          19.2516   70.3438  -10.6280 O.2     1  UNL1       -0.2670
     17 N          18.1679   70.9791   -6.7622 N.ar    1  UNL1       -0.2551
     18 N          17.6198   70.3501   -8.9877 N.ar    1  UNL1       -0.2743
     19 C          17.1756   70.5490   -7.6738 C.ar    1  UNL1        0.3323
     20 C          19.4749   71.1751   -7.1943 C.ar    1  UNL1        0.0869
     21 C          19.8826   70.9816   -8.4506 C.ar    1  UNL1        0.0795
     22 C          18.9087   70.5314   -9.4647 C.ar    1  UNL1        0.2626
     23 H          16.9236   70.0402   -9.6603 H       1  UNL1        0.1734
     24 O          21.8886   74.2933   -3.6986 O.3     1  UNL1       -0.2703
     25 P          22.1999   74.7410   -2.1771 P.3     1  UNL1        0.2208
     26 O          20.9530   75.7041   -1.8112 O.3     1  UNL1       -0.4371
     27 O          23.5487   75.3730   -1.9847 O.2     1  UNL1       -0.5170
     28 O          21.9573   73.4079   -1.3008 O.3     1  UNL1       -0.2858
     29 O          22.8119   73.5736    0.8996 O.3     1  UNL1       -0.3226
     30 O          21.7295   69.5659    0.6851 O.3     1  UNL1       -0.3794
     31 O          23.0204   70.8751   -1.5788 O.3     1  UNL1       -0.3775
     32 O          22.5839   71.3098    2.6494 O.3     1  UNL1       -0.3792
     33 C          21.6700   70.9682    0.4397 C.3     1  UNL1        0.1718
     34 C          22.9411   71.4402   -0.2745 C.3     1  UNL1        0.1968
     35 C          21.5183   71.6989    1.7766 C.3     1  UNL1        0.1723
     36 C          22.9637   72.9694   -0.3892 C.3     1  UNL1        0.2706
     37 C          21.5955   73.2070    1.5489 C.3     1  UNL1        0.1830
     38 H          20.9079   69.3125    1.1394 H       1  UNL1        0.2105
     39 H          23.8334   71.2089   -1.9942 H       1  UNL1        0.2106
     40 H          23.4031   71.7365    2.3461 H       1  UNL1        0.2106
     41 O          20.7703   73.3480    3.7404 O.co2   1  UNL1       -0.5466
     42 O          22.2151   74.9783    3.0683 O.co2   1  UNL1       -0.5466
     43 C          21.5818   73.9572    2.8427 C.2     1  UNL1        0.0799
@<TRIPOS>UNITY_ATOM_ATTR
41 1
charge -1
@<TRIPOS>BOND
     1     1     4    1
     2     1    24    1
     3     1     2    1
     4     1     3    2
     5    25    28    1
     6    25    24    1
     7    25    26    1
     8    25    27    2
     9     6    11    1
    10     6    12    1
    11    29    36    1
    12    29    37    1
    13     7     9    1
    14     7    13    1
    15     8    10    1
    16     8    14    1
    17     4     5    1
    18    28    36    1
    19    30    33    1
    20    30    38    1
    21    31    34    1
    22    31    39    1
    23    32    35    1
    24    32    40    1
    25    41    43   ar
    26    15    19    2
    27    42    43   ar
    28    16    22    2
    29    17    12    1
    30    17    19   ar
    31    17    20   ar
    32    18    19   ar
    33    18    22   ar
    34    18    23    1
    35     9    10    1
    36     9    11    1
    37    10    12    1
    38    11     5    1
    39    33    34    1
    40    33    35    1
    41    34    36    1
    42    35    37    1
    43    37    43    1
    44    20    21   ar
    45    21    22   ar
@<TRIPOS>MOLECULE
UDP-glaA
 43 45 0 0 0
SMALL
GASTEIGER

@<TRIPOS>ATOM
      1 P          22.3459   74.8974   -6.3784 P.3     1  UNL1        0.2189
      2 O          23.1381   73.9976   -5.2920 O.3     1  UNL1       -0.4371
      3 O          21.6176   76.0801   -5.8103 O.2     1  UNL1       -0.5170
      4 O          21.4339   73.8284   -7.1791 O.3     1  UNL1       -0.3112
      5 C          20.1242   74.2096   -7.5644 C.3     1  UNL1        0.1811
      6 O          19.6676   71.9161   -8.1174 O.3     1  UNL1       -0.3308
      7 O          17.9946   72.9861  -10.3641 O.3     1  UNL1       -0.3794
      8 O          16.1262   72.3381   -8.4866 O.3     1  UNL1       -0.3779
      9 C          18.1815   73.5087   -9.0489 C.3     1  UNL1        0.1713
     10 C          17.4236   72.6730   -8.0391 C.3     1  UNL1        0.1895
     11 C          19.6291   73.2601   -8.6460 C.3     1  UNL1        0.1764
     12 C          18.3237   71.4576   -7.8959 C.3     1  UNL1        0.2383
     13 H          18.5283   73.5280  -10.9699 H       1  UNL1        0.2105
     14 H          15.6520   73.1699   -8.6583 H       1  UNL1        0.2106
     15 O          16.1483   69.9053   -6.9830 O.2     1  UNL1       -0.2464
     16 O          18.1156   69.2359   -2.8696 O.2     1  UNL1       -0.2670
     17 N          18.2414   70.8651   -6.5914 N.ar    1  UNL1       -0.2551
     18 N          17.1292   69.5734   -4.9351 N.ar    1  UNL1       -0.2743
     19 C          17.1046   70.1042   -6.2315 C.ar    1  UNL1        0.3323
     20 C          19.2799   71.0406   -5.6836 C.ar    1  UNL1        0.0869
     21 C          19.2886   70.5276   -4.4513 C.ar    1  UNL1        0.0795
     22 C          18.1387   69.7210   -3.9966 C.ar    1  UNL1        0.2626
     23 H          16.3219   69.0233   -4.6544 H       1  UNL1        0.1734
     24 O          23.4979   75.2676   -7.4513 O.3     1  UNL1       -0.2703
     25 P          24.4882   76.5415   -7.5466 P.3     1  UNL1        0.2208
     26 O          24.7549   76.9209   -5.9971 O.3     1  UNL1       -0.4371
     27 O          23.9576   77.6731   -8.3795 O.2     1  UNL1       -0.5170
     28 O          25.8896   75.9322   -8.0649 O.3     1  UNL1       -0.2858
     29 O          28.0873   76.1340   -7.2112 O.3     1  UNL1       -0.3226
     30 O          28.7562   75.9801  -11.3110 O.3     1  UNL1       -0.3794
     31 O          26.5289   77.5217  -10.2300 O.3     1  UNL1       -0.3775
     32 O          30.3032   75.9231   -9.0233 O.3     1  UNL1       -0.3792
     33 C          28.1325   75.7035  -10.0601 C.3     1  UNL1        0.1718
     34 C          27.5873   76.9934   -9.4379 C.3     1  UNL1        0.1968
     35 C          29.1622   75.0648   -9.1239 C.3     1  UNL1        0.1723
     36 C          27.0687   76.7346   -8.0179 C.3     1  UNL1        0.2706
     37 C          28.5539   74.8912   -7.7340 C.3     1  UNL1        0.1830
     38 H          29.0878   75.1378  -11.6662 H       1  UNL1        0.2105
     39 H          26.2105   78.3295   -9.7932 H       1  UNL1        0.2106
     40 H          30.0662   76.6888   -8.4732 H       1  UNL1        0.2106
     41 O          29.2756   74.8251   -5.5027 O.co2   1  UNL1       -0.5466
     42 O          30.5224   73.6824   -7.0314 O.co2   1  UNL1       -0.5466
     43 C          29.5653   74.3901   -6.7527 C.2     1  UNL1        0.0799
@<TRIPOS>UNITY_ATOM_ATTR
41 1
charge -1
@<TRIPOS>BOND
     1     1     4    1
     2     1    24    1
     3     1     2    1
     4     1     3    2
     5    25    28    1
     6    25    24    1
     7    25    26    1
     8    25    27    2
     9     6    11    1
    10     6    12    1
    11    29    36    1
    12    29    37    1
    13     7     9    1
    14     7    13    1
    15     8    10    1
    16     8    14    1
    17     4     5    1
    18    28    36    1
    19    30    33    1
    20    30    38    1
    21    31    34    1
    22    31    39    1
    23    32    35    1
    24    32    40    1
    25    41    43   ar
    26    15    19    2
    27    42    43   ar
    28    16    22    2
    29    17    12    1
    30    17    19   ar
    31    17    20   ar
    32    18    19   ar
    33    18    22   ar
    34    18    23    1
    35     9    10    1
    36     9    11    1
    37    10    12    1
    38    11     5    1
    39    33    34    1
    40    33    35    1
    41    34    36    1
    42    35    37    1
    43    37    43    1
    44    20    21   ar
    45    21    22   ar
@<TRIPOS>MOLECULE
UDP-glaA
 43 45 0 0 0
SMALL
GASTEIGER

@<TRIPOS>ATOM
      1 P          21.6918   73.5696   -5.5822 P.3     1  UNL1        0.2189
      2 O          21.8533   75.1473   -5.9018 O.3     1  UNL1       -0.4371
      3 O          22.9787   72.8398   -5.3304 O.2     1  UNL1       -0.5170
      4 O          20.7966   73.0132   -6.8088 O.3     1  UNL1       -0.3112
      5 C          21.4548   72.5932   -7.9919 C.3     1  UNL1        0.1811
      6 O          19.9852   70.7032   -8.1983 O.3     1  UNL1       -0.3308
      7 O          18.6365   72.2292  -10.3992 O.3     1  UNL1       -0.3794
      8 O          16.9549   72.6177   -8.2879 O.3     1  UNL1       -0.3779
      9 C          19.2122   72.7132   -9.1859 C.3     1  UNL1        0.1713
     10 C          18.3190   72.3775   -8.0102 C.3     1  UNL1        0.1895
     11 C          20.4536   71.8816   -8.8907 C.3     1  UNL1        0.1764
     12 C          18.6205   70.9041   -7.7952 C.3     1  UNL1        0.2383
     13 H          19.2602   72.4320  -11.1170 H       1  UNL1        0.2105
     14 H          16.8649   73.5578   -8.5210 H       1  UNL1        0.2106
     15 O          16.1630   70.2241   -6.5812 O.2     1  UNL1       -0.2464
     16 O          18.1854   69.4069   -2.5215 O.2     1  UNL1       -0.2670
     17 N          18.4758   70.5095   -6.4231 N.ar    1  UNL1       -0.2551
     18 N          17.1717   69.8181   -4.5603 N.ar    1  UNL1       -0.2743
     19 C          17.1967   70.1892   -5.9112 C.ar    1  UNL1        0.3323
     20 C          19.5941   70.4430   -5.5994 C.ar    1  UNL1        0.0869
     21 C          19.5538   70.0869   -4.3135 C.ar    1  UNL1        0.0795
     22 C          18.2566   69.7377   -3.7011 C.ar    1  UNL1        0.2626
     23 H          16.2626   69.5841   -4.1706 H       1  UNL1        0.1734
     24 O          20.6556   73.5556   -4.3408 O.3     1  UNL1       -0.2703
     25 P          20.8395   74.0114   -2.8010 P.3     1  UNL1        0.2208
     26 O          19.3309   74.3630   -2.3354 O.3     1  UNL1       -0.4371
     27 O          21.8255   75.1268   -2.6023 O.2     1  UNL1       -0.5170
     28 O          21.2037   72.6514   -2.0126 O.3     1  UNL1       -0.2858
     29 O          22.2110   73.2525    0.0425 O.3     1  UNL1       -0.3226
     30 O          22.2851   69.1000    0.2179 O.3     1  UNL1       -0.3794
     31 O          22.9007   70.4890   -2.2716 O.3     1  UNL1       -0.3775
     32 O          22.8218   71.1898    1.9427 O.3     1  UNL1       -0.3792
     33 C          21.8066   70.4032   -0.1031 C.3     1  UNL1        0.1718
     34 C          22.8076   71.1329   -1.0052 C.3     1  UNL1        0.1968
     35 C          21.6013   71.1891    1.1948 C.3     1  UNL1        0.1723
     36 C          22.3858   72.5924   -1.2155 C.3     1  UNL1        0.2706
     37 C          21.2253   72.6324    0.8668 C.3     1  UNL1        0.1830
     38 H          21.6227   68.6771    0.7906 H       1  UNL1        0.2105
     39 H          23.5365   70.9902   -2.8095 H       1  UNL1        0.2106
     40 H          23.4495   71.7924    1.5091 H       1  UNL1        0.2106
     41 O          20.6990   72.7344    3.1508 O.co2   1  UNL1       -0.5466
     42 O          21.4331   74.6558    2.1677 O.co2   1  UNL1       -0.5466
     43 C          21.1414   73.4704    2.1028 C.2     1  UNL1        0.0799
@<TRIPOS>UNITY_ATOM_ATTR
41 1
charge -1
@<TRIPOS>BOND
     1     1     4    1
     2     1    24    1
     3     1     2    1
     4     1     3    2
     5    25    28    1
     6    25    24    1
     7    25    26    1
     8    25    27    2
     9     6    11    1
    10     6    12    1
    11    29    36    1
    12    29    37    1
    13     7     9    1
    14     7    13    1
    15     8    10    1
    16     8    14    1
    17     4     5    1
    18    28    36    1
    19    30    33    1
    20    30    38    1
    21    31    34    1
    22    31    39    1
    23    32    35    1
    24    32    40    1
    25    41    43   ar
    26    15    19    2
    27    42    43   ar
    28    16    22    2
    29    17    12    1
    30    17    19   ar
    31    17    20   ar
    32    18    19   ar
    33    18    22   ar
    34    18    23    1
    35     9    10    1
    36     9    11    1
    37    10    12    1
    38    11     5    1
    39    33    34    1
    40    33    35    1
    41    34    36    1
    42    35    37    1
    43    37    43    1
    44    20    21   ar
    45    21    22   ar
@<TRIPOS>MOLECULE
UDP-glaA
 43 45 0 0 0
SMALL
GASTEIGER

@<TRIPOS>ATOM
      1 P          21.2863   73.5015   -5.4478 P.3     1  UNL1        0.2189
      2 O          20.3434   74.7908   -5.7051 O.3     1  UNL1       -0.4371
      3 O          21.8946   72.9055   -6.6835 O.2     1  UNL1       -0.5170
      4 O          20.3578   72.5082   -4.5721 O.3     1  UNL1       -0.3112
      5 C          19.7447   71.4069   -5.2204 C.3     1  UNL1        0.1811
      6 O          17.5089   72.2875   -5.2109 O.3     1  UNL1       -0.3308
      7 O          16.6592   69.6107   -4.1601 O.3     1  UNL1       -0.3794
      8 O          16.0025   69.4492   -6.8017 O.3     1  UNL1       -0.3779
      9 C          17.6793   69.9268   -5.1073 C.3     1  UNL1        0.1713
     10 C          17.0619   70.3091   -6.4360 C.3     1  UNL1        0.1895
     11 C          18.3351   71.2312   -4.6736 C.3     1  UNL1        0.1764
     12 C          16.5953   71.7302   -6.1701 C.3     1  UNL1        0.2383
     13 H          17.0992   69.4108   -3.3162 H       1  UNL1        0.2105
     14 H          16.3604   68.5458   -6.8447 H       1  UNL1        0.2106
     15 O          18.6436   71.6854   -8.1137 O.2     1  UNL1       -0.2464
     16 O          16.5390   74.8906  -10.6703 O.2     1  UNL1       -0.2670
     17 N          16.6079   72.5418   -7.3535 N.ar    1  UNL1       -0.2551
     18 N          17.5945   73.2818   -9.3852 N.ar    1  UNL1       -0.2743
     19 C          17.6844   72.4439   -8.2659 C.ar    1  UNL1        0.3323
     20 C          15.5614   73.4233   -7.6007 C.ar    1  UNL1        0.0869
     21 C          15.4900   74.2152   -8.6729 C.ar    1  UNL1        0.0795
     22 C          16.5743   74.1749   -9.6740 C.ar    1  UNL1        0.2626
     23 H          18.3577   73.2288  -10.0545 H       1  UNL1        0.1734
     24 O          22.3572   74.0460   -4.3653 O.3     1  UNL1       -0.2703
     25 P          23.4459   73.2619   -3.4640 P.3     1  UNL1        0.2208
     26 O          24.8223   74.0534   -3.7724 O.3     1  UNL1       -0.4371
     27 O          23.5095   71.7837   -3.7223 O.2     1  UNL1       -0.5170
     28 O          23.0791   73.6577   -1.9432 O.3     1  UNL1       -0.2858
     29 O          21.7753   71.9055   -1.0327 O.3     1  UNL1       -0.3226
     30 O          21.9704   74.5848    2.1394 O.3     1  UNL1       -0.3794
     31 O          21.5856   75.5433   -0.5880 O.3     1  UNL1       -0.3775
     32 O          21.0704   72.0028    1.7480 O.3     1  UNL1       -0.3792
     33 C          22.3939   73.8721    0.9805 C.3     1  UNL1        0.1718
     34 C          21.4690   74.1778   -0.2025 C.3     1  UNL1        0.1968
     35 C          22.3742   72.3721    1.2869 C.3     1  UNL1        0.1723
     36 C          21.8111   73.2875   -1.4036 C.3     1  UNL1        0.2706
     37 C          22.6874   71.5846    0.0165 C.3     1  UNL1        0.1830
     38 H          22.5813   74.3597    2.8617 H       1  UNL1        0.2105
     39 H          20.9909   75.6866   -1.3435 H       1  UNL1        0.2106
     40 H          20.4632   72.0010    0.9887 H       1  UNL1        0.2106
     41 O          23.7531   69.4970    0.1155 O.co2   1  UNL1       -0.5466
     42 O          21.5060   69.5347    0.4982 O.co2   1  UNL1       -0.5466
     43 C          22.5520   70.1117    0.2383 C.2     1  UNL1        0.0799
@<TRIPOS>UNITY_ATOM_ATTR
41 1
charge -1
@<TRIPOS>BOND
     1     1     4    1
     2     1    24    1
     3     1     2    1
     4     1     3    2
     5    25    28    1
     6    25    24    1
     7    25    26    1
     8    25    27    2
     9     6    11    1
    10     6    12    1
    11    29    36    1
    12    29    37    1
    13     7     9    1
    14     7    13    1
    15     8    10    1
    16     8    14    1
    17     4     5    1
    18    28    36    1
    19    30    33    1
    20    30    38    1
    21    31    34    1
    22    31    39    1
    23    32    35    1
    24    32    40    1
    25    41    43   ar
    26    15    19    2
    27    42    43   ar
    28    16    22    2
    29    17    12    1
    30    17    19   ar
    31    17    20   ar
    32    18    19   ar
    33    18    22   ar
    34    18    23    1
    35     9    10    1
    36     9    11    1
    37    10    12    1
    38    11     5    1
    39    33    34    1
    40    33    35    1
    41    34    36    1
    42    35    37    1
    43    37    43    1
    44    20    21   ar
    45    21    22   ar
@<TRIPOS>MOLECULE
UDP-glaA
 43 45 0 0 0
SMALL
GASTEIGER

@<TRIPOS>ATOM
      1 P          22.0621   70.9418   -3.0254 P.3     1  UNL1        0.2189
      2 O          21.2369   69.6024   -2.6480 O.3     1  UNL1       -0.4371
      3 O          23.5164   70.7256   -3.3260 O.2     1  UNL1       -0.5170
      4 O          21.7392   71.9549   -1.8069 O.3     1  UNL1       -0.3112
      5 C          22.8234   72.5078   -1.0802 C.3     1  UNL1        0.1811
      6 O          23.4015   74.0800    0.6427 O.3     1  UNL1       -0.3308
      7 O          20.8068   75.4430    0.0097 O.3     1  UNL1       -0.3794
      8 O          22.6313   77.0090   -1.2766 O.3     1  UNL1       -0.3779
      9 C          21.7226   74.7910   -0.8700 C.3     1  UNL1        0.1713
     10 C          22.9535   75.6483   -1.0762 C.3     1  UNL1        0.1895
     11 C          22.2945   73.5823   -0.1409 C.3     1  UNL1        0.1764
     12 C          23.7212   75.4138    0.2136 C.3     1  UNL1        0.2383
     13 H          20.0544   74.8415    0.1427 H       1  UNL1        0.2105
     14 H          22.0511   77.0608   -2.0556 H       1  UNL1        0.2106
     15 O          25.0424   75.1019   -2.2628 O.2     1  UNL1       -0.2464
     16 O          29.1744   75.8361   -0.3586 O.2     1  UNL1       -0.2670
     17 N          25.1410   75.5188    0.0332 N.ar    1  UNL1       -0.2551
     18 N          27.0991   75.4672   -1.3128 N.ar    1  UNL1       -0.2743
     19 C          25.7048   75.3442   -1.2522 C.ar    1  UNL1        0.3323
     20 C          25.9599   75.7919    1.1233 C.ar    1  UNL1        0.0869
     21 C          27.2877   75.9066    1.0491 C.ar    1  UNL1        0.0795
     22 C          27.9554   75.7375   -0.2567 C.ar    1  UNL1        0.2626
     23 H          27.5264   75.3449   -2.2270 H       1  UNL1        0.1734
     24 O          21.2062   71.5618   -4.2495 O.3     1  UNL1       -0.2703
     25 P          21.4018   72.9242   -5.0970 P.3     1  UNL1        0.2208
     26 O          22.9059   72.7883   -5.6762 O.3     1  UNL1       -0.4371
     27 O          21.1510   74.1796   -4.3115 O.2     1  UNL1       -0.5170
     28 O          20.4495   72.7436   -6.3871 O.3     1  UNL1       -0.2858
     29 O          19.2943   70.6843   -6.5438 O.3     1  UNL1       -0.3226
     30 O          18.7183   72.2966  -10.3317 O.3     1  UNL1       -0.3794
     31 O          21.3046   72.5226   -9.0029 O.3     1  UNL1       -0.3775
     32 O          17.7669   70.1282   -8.9094 O.3     1  UNL1       -0.3792
     33 C          18.8893   72.2671   -8.9174 C.3     1  UNL1        0.1718
     34 C          20.2543   71.6716   -8.5563 C.3     1  UNL1        0.1968
     35 C          17.7700   71.4237   -8.3007 C.3     1  UNL1        0.1723
     36 C          20.3781   71.4769   -7.0401 C.3     1  UNL1        0.2706
     37 C          18.0156   71.2619   -6.8021 C.3     1  UNL1        0.1830
     38 H          17.8424   72.6777  -10.5134 H       1  UNL1        0.2105
     39 H          22.1461   72.1104   -8.7444 H       1  UNL1        0.2106
     40 H          18.5271   69.6258   -8.5704 H       1  UNL1        0.2106
     41 O          15.9797   70.1173   -7.0235 O.co2   1  UNL1       -0.5466
     42 O          17.1184   69.8417   -5.0679 O.co2   1  UNL1       -0.5466
     43 C          17.0175   70.3374   -6.1808 C.2     1  UNL1        0.0799
@<TRIPOS>UNITY_ATOM_ATTR
41 1
charge -1
@<TRIPOS>BOND
     1     1     4    1
     2     1    24    1
     3     1     2    1
     4     1     3    2
     5    25    28    1
     6    25    24    1
     7    25    26    1
     8    25    27    2
     9     6    11    1
    10     6    12    1
    11    29    36    1
    12    29    37    1
    13     7     9    1
    14     7    13    1
    15     8    10    1
    16     8    14    1
    17     4     5    1
    18    28    36    1
    19    30    33    1
    20    30    38    1
    21    31    34    1
    22    31    39    1
    23    32    35    1
    24    32    40    1
    25    41    43   ar
    26    15    19    2
    27    42    43   ar
    28    16    22    2
    29    17    12    1
    30    17    19   ar
    31    17    20   ar
    32    18    19   ar
    33    18    22   ar
    34    18    23    1
    35     9    10    1
    36     9    11    1
    37    10    12    1
    38    11     5    1
    39    33    34    1
    40    33    35    1
    41    34    36    1
    42    35    37    1
    43    37    43    1
    44    20    21   ar
    45    21    22   ar
@<TRIPOS>MOLECULE
UDP-glaA
 43 45 0 0 0
SMALL
GASTEIGER

@<TRIPOS>ATOM
      1 P          21.9035   72.5651   -3.9433 P.3     1  UNL1        0.2189
      2 O          21.2030   73.8514   -4.6304 O.3     1  UNL1       -0.4371
      3 O          23.3187   72.3104   -4.3727 O.2     1  UNL1       -0.5170
      4 O          20.8589   71.3608   -4.2151 O.3     1  UNL1       -0.3112
      5 C          19.8914   71.5213   -5.2385 C.3     1  UNL1        0.1811
      6 O          17.6402   72.3585   -5.1633 O.3     1  UNL1       -0.3308
      7 O          16.8775   69.6744   -4.0655 O.3     1  UNL1       -0.3794
      8 O          16.1394   69.4788   -6.6833 O.3     1  UNL1       -0.3779
      9 C          17.8601   70.0025   -5.0476 C.3     1  UNL1        0.1713
     10 C          17.1930   70.3620   -6.3584 C.3     1  UNL1        0.1895
     11 C          18.5039   71.3228   -4.6451 C.3     1  UNL1        0.1764
     12 C          16.7074   71.7759   -6.0883 C.3     1  UNL1        0.2383
     13 H          17.3482   69.4899   -3.2349 H       1  UNL1        0.2105
     14 H          16.5134   68.5821   -6.7311 H       1  UNL1        0.2106
     15 O          18.6151   71.6473   -8.1666 O.2     1  UNL1       -0.2464
     16 O          16.4485   74.9034  -10.6043 O.2     1  UNL1       -0.2670
     17 N          16.6660   72.5779   -7.2775 N.ar    1  UNL1       -0.2551
     18 N          17.5353   73.2692   -9.3788 N.ar    1  UNL1       -0.2743
     19 C          17.6736   72.4369   -8.2602 C.ar    1  UNL1        0.3323
     20 C          15.6350   73.4927   -7.4612 C.ar    1  UNL1        0.0869
     21 C          15.5168   74.2787   -8.5335 C.ar    1  UNL1        0.0795
     22 C          16.5280   74.1943   -9.6059 C.ar    1  UNL1        0.2626
     23 H          18.2486   73.1854  -10.0980 H       1  UNL1        0.1734
     24 O          21.7210   72.8543   -2.3627 O.3     1  UNL1       -0.2703
     25 P          20.5444   72.4345   -1.3370 P.3     1  UNL1        0.2208
     26 O          20.7108   70.8301   -1.2179 O.3     1  UNL1       -0.4371
     27 O          19.1740   72.8865   -1.7533 O.2     1  UNL1       -0.5170
     28 O          21.0276   73.0026    0.0941 O.3     1  UNL1       -0.2858
     29 O          23.0599   74.0365    0.7264 O.3     1  UNL1       -0.3226
     30 O          22.0125   71.9856    4.1871 O.3     1  UNL1       -0.3794
     31 O          21.6528   70.7534    1.5682 O.3     1  UNL1       -0.3775
     32 O          23.9240   73.8410    3.4566 O.3     1  UNL1       -0.3792
     33 C          21.8365   72.7228    2.9804 C.3     1  UNL1        0.1718
     34 C          22.4037   71.9424    1.7898 C.3     1  UNL1        0.1968
     35 C          22.5532   74.0693    3.1137 C.3     1  UNL1        0.1723
     36 C          22.3749   72.7973    0.5167 C.3     1  UNL1        0.2706
     37 C          22.4973   74.8144    1.7819 C.3     1  UNL1        0.1830
     38 H          21.6422   72.5172    4.9122 H       1  UNL1        0.2105
     39 H          22.0417   70.2993    0.8018 H       1  UNL1        0.2106
     40 H          24.3883   73.5098    2.6692 H       1  UNL1        0.2106
     41 O          23.1906   76.6670    3.0432 O.co2   1  UNL1       -0.5466
     42 O          23.9589   76.5229    0.9018 O.co2   1  UNL1       -0.5466
     43 C          23.2964   76.0779    1.8278 C.2     1  UNL1        0.0799
@<TRIPOS>UNITY_ATOM_ATTR
41 1
charge -1
@<TRIPOS>BOND
     1     1     4    1
     2     1    24    1
     3     1     2    1
     4     1     3    2
     5    25    28    1
     6    25    24    1
     7    25    26    1
     8    25    27    2
     9     6    11    1
    10     6    12    1
    11    29    36    1
    12    29    37    1
    13     7     9    1
    14     7    13    1
    15     8    10    1
    16     8    14    1
    17     4     5    1
    18    28    36    1
    19    30    33    1
    20    30    38    1
    21    31    34    1
    22    31    39    1
    23    32    35    1
    24    32    40    1
    25    41    43   ar
    26    15    19    2
    27    42    43   ar
    28    16    22    2
    29    17    12    1
    30    17    19   ar
    31    17    20   ar
    32    18    19   ar
    33    18    22   ar
    34    18    23    1
    35     9    10    1
    36     9    11    1
    37    10    12    1
    38    11     5    1
    39    33    34    1
    40    33    35    1
    41    34    36    1
    42    35    37    1
    43    37    43    1
    44    20    21   ar
    45    21    22   ar
@<TRIPOS>MOLECULE
UDP-glaA
 43 45 0 0 0
SMALL
GASTEIGER

@<TRIPOS>ATOM
      1 P          22.5708   73.1940   -4.6908 P.3     1  UNL1        0.2189
      2 O          21.8474   74.6358   -4.8151 O.3     1  UNL1       -0.4371
      3 O          24.0185   73.2440   -4.2985 O.2     1  UNL1       -0.5170
      4 O          22.2496   72.4738   -6.1027 O.3     1  UNL1       -0.3112
      5 C          21.4840   73.1795   -7.0645 C.3     1  UNL1        0.1811
      6 O          20.1020   71.2150   -7.1361 O.3     1  UNL1       -0.3308
      7 O          19.5058   71.9659   -9.9773 O.3     1  UNL1       -0.3794
      8 O          17.2796   72.8217   -8.6555 O.3     1  UNL1       -0.3779
      9 C          19.7035   72.8093   -8.8427 C.3     1  UNL1        0.1713
     10 C          18.4929   72.7603   -7.9346 C.3     1  UNL1        0.1895
     11 C          20.7815   72.1787   -7.9709 C.3     1  UNL1        0.1764
     12 C          18.6839   71.4306   -7.2251 C.3     1  UNL1        0.2383
     13 H          20.3198   71.9989  -10.5082 H       1  UNL1        0.2105
     14 H          17.2839   73.6498   -9.1658 H       1  UNL1        0.2106
     15 O          16.7243   69.6100   -6.3191 O.2     1  UNL1       -0.2464
     16 O          16.6202   71.5250   -2.1285 O.2     1  UNL1       -0.2670
     17 N          18.1275   71.4302   -5.9023 N.ar    1  UNL1       -0.2551
     18 N          16.6734   70.5652   -4.2331 N.ar    1  UNL1       -0.2743
     19 C          17.1477   70.4734   -5.5483 C.ar    1  UNL1        0.3323
     20 C          18.5529   72.3710   -4.9711 C.ar    1  UNL1        0.0869
     21 C          18.0913   72.4452   -3.7208 C.ar    1  UNL1        0.0795
     22 C          17.0655   71.4832   -3.2713 C.ar    1  UNL1        0.2626
     23 H          15.9679   69.8877   -3.9566 H       1  UNL1        0.1734
     24 O          21.6188   72.3992   -3.6529 O.3     1  UNL1       -0.2703
     25 P          21.7318   70.9083   -3.0389 P.3     1  UNL1        0.2208
     26 O          23.3000   70.5528   -3.2139 O.3     1  UNL1       -0.4371
     27 O          20.7970   69.9125   -3.6635 O.2     1  UNL1       -0.5170
     28 O          21.5323   71.1043   -1.4497 O.3     1  UNL1       -0.2858
     29 O          23.1169   72.6982   -0.7093 O.3     1  UNL1       -0.3226
     30 O          21.1585   71.7117    2.8221 O.3     1  UNL1       -0.3794
     31 O          21.8339   69.6472    0.8759 O.3     1  UNL1       -0.3775
     32 O          23.0142   73.5923    2.0162 O.3     1  UNL1       -0.3792
     33 C          21.3330   71.9599    1.4299 C.3     1  UNL1        0.1718
     34 C          22.3450   70.9753    0.8342 C.3     1  UNL1        0.1968
     35 C          21.8268   73.3969    1.2412 C.3     1  UNL1        0.1723
     36 C          22.6684   71.3418   -0.6196 C.3     1  UNL1        0.2706
     37 C          22.1556   73.6375   -0.2306 C.3     1  UNL1        0.1830
     38 H          20.5135   72.3579    3.1567 H       1  UNL1        0.2105
     39 H          22.5028   69.0629    0.4810 H       1  UNL1        0.2106
     40 H          23.7488   73.1306    1.5776 H       1  UNL1        0.2106
     41 O          22.2379   75.8897    0.4209 O.co2   1  UNL1       -0.5466
     42 O          23.6211   75.2480   -1.2738 O.co2   1  UNL1       -0.5466
     43 C          22.7642   74.9873   -0.4418 C.2     1  UNL1        0.0799
@<TRIPOS>UNITY_ATOM_ATTR
41 1
charge -1
@<TRIPOS>BOND
     1     1     4    1
     2     1    24    1
     3     1     2    1
     4     1     3    2
     5    25    28    1
     6    25    24    1
     7    25    26    1
     8    25    27    2
     9     6    11    1
    10     6    12    1
    11    29    36    1
    12    29    37    1
    13     7     9    1
    14     7    13    1
    15     8    10    1
    16     8    14    1
    17     4     5    1
    18    28    36    1
    19    30    33    1
    20    30    38    1
    21    31    34    1
    22    31    39    1
    23    32    35    1
    24    32    40    1
    25    41    43   ar
    26    15    19    2
    27    42    43   ar
    28    16    22    2
    29    17    12    1
    30    17    19   ar
    31    17    20   ar
    32    18    19   ar
    33    18    22   ar
    34    18    23    1
    35     9    10    1
    36     9    11    1
    37    10    12    1
    38    11     5    1
    39    33    34    1
    40    33    35    1
    41    34    36    1
    42    35    37    1
    43    37    43    1
    44    20    21   ar
    45    21    22   ar
@<TRIPOS>MOLECULE
UDP-glaA
 43 45 0 0 0
SMALL
GASTEIGER

@<TRIPOS>ATOM
      1 P          21.9841   76.2528   -4.3974 P.3     1  UNL1        0.2189
      2 O          23.5981   76.3357   -4.3242 O.3     1  UNL1       -0.4371
      3 O          21.3395   77.2550   -5.3096 O.2     1  UNL1       -0.5170
      4 O          21.5202   76.3111   -2.8492 O.3     1  UNL1       -0.3112
      5 C          20.7295   75.2513   -2.3385 C.3     1  UNL1        0.1811
      6 O          19.9983   74.3494   -0.2347 O.3     1  UNL1       -0.3308
      7 O          20.8139   76.9752    0.9617 O.3     1  UNL1       -0.3794
      8 O          22.9053   75.3501    1.6102 O.3     1  UNL1       -0.3779
      9 C          21.4219   76.2382   -0.0990 C.3     1  UNL1        0.1713
     10 C          22.1595   75.0363    0.4523 C.3     1  UNL1        0.1895
     11 C          20.3127   75.5854   -0.9133 C.3     1  UNL1        0.1764
     12 C          21.0219   74.0697    0.7345 C.3     1  UNL1        0.2383
     13 H          20.3220   77.7108    0.5586 H       1  UNL1        0.2105
     14 H          23.5359   76.0511    1.3712 H       1  UNL1        0.2106
     15 O          22.2784   72.5787    2.7774 O.2     1  UNL1       -0.2464
     16 O          22.5210   68.8132    0.1316 O.2     1  UNL1       -0.2670
     17 N          21.4237   72.6980    0.6070 N.ar    1  UNL1       -0.2551
     18 N          22.3988   70.7048    1.4584 N.ar    1  UNL1       -0.2743
     19 C          22.0481   72.0409    1.6928 C.ar    1  UNL1        0.3323
     20 C          21.1982   72.0176   -0.5845 C.ar    1  UNL1        0.0869
     21 C          21.5381   70.7435   -0.7922 C.ar    1  UNL1        0.0795
     22 C          22.1955   69.9856    0.2908 C.ar    1  UNL1        0.2626
     23 H          22.8497   70.2125    2.2249 H       1  UNL1        0.1734
     24 O          21.7184   74.7087   -4.7981 O.3     1  UNL1       -0.2703
     25 P          22.0268   73.8994   -6.1629 P.3     1  UNL1        0.2208
     26 O          22.7736   72.5630   -5.6410 O.3     1  UNL1       -0.4371
     27 O          22.8010   74.6842   -7.1829 O.2     1  UNL1       -0.5170
     28 O          20.5827   73.3885   -6.6705 O.3     1  UNL1       -0.2858
     29 O          19.2995   71.4278   -6.3414 O.3     1  UNL1       -0.3226
     30 O          18.6483   72.2293  -10.3679 O.3     1  UNL1       -0.3794
     31 O          21.3019   72.5554   -9.2026 O.3     1  UNL1       -0.3775
     32 O          17.6342   70.4855   -8.4809 O.3     1  UNL1       -0.3792
     33 C          18.8820   72.4910   -8.9869 C.3     1  UNL1        0.1718
     34 C          20.2237   71.8938   -8.5494 C.3     1  UNL1        0.1968
     35 C          17.7434   71.8778   -8.1671 C.3     1  UNL1        0.1723
     36 C          20.4051   72.0195   -7.0316 C.3     1  UNL1        0.2706
     37 C          18.0474   72.0234   -6.6776 C.3     1  UNL1        0.1830
     38 H          17.7895   72.6221  -10.5997 H       1  UNL1        0.2105
     39 H          22.1280   72.1511   -8.8880 H       1  UNL1        0.2106
     40 H          18.3774   70.0161   -8.0657 H       1  UNL1        0.2106
     41 O          17.4332   70.0682   -5.5358 O.co2   1  UNL1       -0.5466
     42 O          15.9660   71.8119   -5.4722 O.co2   1  UNL1       -0.5466
     43 C          17.0250   71.3239   -5.8395 C.2     1  UNL1        0.0799
@<TRIPOS>UNITY_ATOM_ATTR
41 1
charge -1
@<TRIPOS>BOND
     1     1     4    1
     2     1    24    1
     3     1     2    1
     4     1     3    2
     5    25    28    1
     6    25    24    1
     7    25    26    1
     8    25    27    2
     9     6    11    1
    10     6    12    1
    11    29    36    1
    12    29    37    1
    13     7     9    1
    14     7    13    1
    15     8    10    1
    16     8    14    1
    17     4     5    1
    18    28    36    1
    19    30    33    1
    20    30    38    1
    21    31    34    1
    22    31    39    1
    23    32    35    1
    24    32    40    1
    25    41    43   ar
    26    15    19    2
    27    42    43   ar
    28    16    22    2
    29    17    12    1
    30    17    19   ar
    31    17    20   ar
    32    18    19   ar
    33    18    22   ar
    34    18    23    1
    35     9    10    1
    36     9    11    1
    37    10    12    1
    38    11     5    1
    39    33    34    1
    40    33    35    1
    41    34    36    1
    42    35    37    1
    43    37    43    1
    44    20    21   ar
    45    21    22   ar
