@<TRIPOS>MOLECULE
*****
 43 45 0 0 0
SMALL
GASTEIGER

@<TRIPOS>ATOM
      1 P          22.8570   71.5174   -2.3605 P.3     1  UNL1        0.2189
      2 O          22.1771   72.9675   -2.1285 O.co2   1  UNL1       -0.4371
      3 O          23.9090   71.4746   -3.4297 O.2     1  UNL1       -0.5170
      4 O          21.5958   70.5269   -2.5757 O.3     1  UNL1       -0.3112
      5 C          20.8927   70.5844   -3.8033 C.3     1  UNL1        0.1811
      6 O          18.9648   71.6753   -4.7363 O.3     1  UNL1       -0.3308
      7 O          17.4079   70.4325   -2.4951 O.3     1  UNL1       -0.3794
      8 O          16.8276   68.7999   -4.6008 O.3     1  UNL1       -0.3779
      9 C          18.5090   69.9022   -3.2333 C.3     1  UNL1        0.1713
     10 C          18.0604   69.4886   -4.6190 C.3     1  UNL1        0.1895
     11 C          19.4660   71.0468   -3.5367 C.3     1  UNL1        0.1764
     12 C          17.9727   70.8259   -5.3344 C.3     1  UNL1        0.2383
     13 H          16.7826   69.7194   -2.2896 H       1  UNL1        0.2105
     14 H          16.9358   67.9554   -4.1348 H       1  UNL1        0.2106
     15 O          16.0278   70.1943   -7.2824 O.2     1  UNL1       -0.2464
     16 O          19.1123   70.4225  -10.6997 O.2     1  UNL1       -0.2670
     17 N          18.2402   70.7138   -6.7404 N.ar    1  UNL1       -0.2551
     18 N          17.5661   70.3076   -8.9824 N.ar    1  UNL1       -0.2743
     19 C          17.1921   70.3917   -7.6348 C.ar    1  UNL1        0.3323
     20 C          19.5273   70.9234   -7.2204 C.ar    1  UNL1        0.0869
     21 C          19.8684   70.8397   -8.5078 C.ar    1  UNL1        0.0795
     22 C          18.8326   70.5068   -9.5076 C.ar    1  UNL1        0.2626
     23 H          16.8539   70.0826   -9.6238 H       1  UNL1        0.1734
     24 O          23.3815   71.1221   -0.8835 O.3     1  UNL1       -0.2703
     25 P          22.6007   71.0217    0.5286 P.3     1  UNL1        0.2208
     26 O          23.6331   70.1976    1.4642 O.co2   1  UNL1       -0.4371
     27 O          21.2316   70.4130    0.4333 O.2     1  UNL1       -0.5170
     28 O          22.6264   72.5230    1.1182 O.3     1  UNL1       -0.2858
     29 O          23.9540   73.7220    2.6703 O.3     1  UNL1       -0.3226
     30 O          20.1477   74.9750    3.6753 O.3     1  UNL1       -0.3794
     31 O          20.6684   72.1668    3.0612 O.3     1  UNL1       -0.3775
     32 O          21.9153   76.7329    2.1799 O.3     1  UNL1       -0.3792
     33 C          21.1830   74.5235    2.8022 C.3     1  UNL1        0.1718
     34 C          21.6765   73.1510    3.2604 C.3     1  UNL1        0.1968
     35 C          22.3228   75.5433    2.8532 C.3     1  UNL1        0.1723
     36 C          22.9340   72.7380    2.4943 C.3     1  UNL1        0.2706
     37 C          23.5811   75.0067    2.1769 C.3     1  UNL1        0.1830
     38 H          19.4123   74.3424    3.6593 H       1  UNL1        0.2105
     39 H          19.8674   72.4226    3.5443 H       1  UNL1        0.2106
     40 H          21.1152   77.0846    2.6005 H       1  UNL1        0.2106
     41 O          25.9176   75.1674    2.3048 O.co2   1  UNL1       -0.5466
     42 O          24.7136   77.0037    2.9192 O.co2   1  UNL1       -0.5466
     43 C          24.7660   75.8523    2.5136 C.2     1  UNL1        0.0799
@<TRIPOS>UNITY_ATOM_ATTR
2 1
charge -1
26 1
charge -1
41 1
charge -1
@<TRIPOS>BOND
     1     1     4    1
     2     1    24    1
     3     1     2    1
     4     1     3    2
     5    25    28    1
     6    25    24    1
     7    25    26    1
     8    25    27    2
     9     6    11    1
    10     6    12    1
    11    29    36    1
    12    29    37    1
    13     7     9    1
    14     7    13    1
    15     8    10    1
    16     8    14    1
    17     4     5    1
    18    28    36    1
    19    30    33    1
    20    30    38    1
    21    31    34    1
    22    31    39    1
    23    32    35    1
    24    32    40    1
    25    41    43   ar
    26    15    19    2
    27    42    43   ar
    28    16    22    2
    29    17    12    1
    30    17    19   ar
    31    17    20   ar
    32    18    19   ar
    33    18    22   ar
    34    18    23    1
    35     9    10    1
    36     9    11    1
    37    10    12    1
    38    11     5    1
    39    33    34    1
    40    33    35    1
    41    34    36    1
    42    35    37    1
    43    37    43    1
    44    20    21   ar
    45    21    22   ar
@<TRIPOS>MOLECULE
*****
 43 45 0 0 0
SMALL
GASTEIGER

@<TRIPOS>ATOM
      1 P          23.0958   71.6684   -2.5422 P.3     1  UNL1        0.2189
      2 O          23.4492   73.1992   -2.1539 O.co2   1  UNL1       -0.4371
      3 O          24.2223   70.8962   -3.1638 O.2     1  UNL1       -0.5170
      4 O          21.7530   71.7944   -3.4361 O.3     1  UNL1       -0.3112
      5 C          20.9648   70.6359   -3.6392 C.3     1  UNL1        0.1811
      6 O          18.9456   71.5804   -4.5383 O.3     1  UNL1       -0.3308
      7 O          17.5147   70.1667   -2.3145 O.3     1  UNL1       -0.3794
      8 O          17.0570   68.5342   -4.4503 O.3     1  UNL1       -0.3779
      9 C          18.6507   69.7454   -3.0699 C.3     1  UNL1        0.1713
     10 C          18.2279   69.3238   -4.4612 C.3     1  UNL1        0.1895
     11 C          19.5065   70.9720   -3.3549 C.3     1  UNL1        0.1764
     12 C          18.0235   70.6633   -5.1482 C.3     1  UNL1        0.2383
     13 H          16.9526   69.3999   -2.1202 H       1  UNL1        0.2105
     14 H          17.2388   67.6925   -4.0026 H       1  UNL1        0.2106
     15 O          16.1356   69.8715   -7.0937 O.2     1  UNL1       -0.2464
     16 O          19.1522   70.4672  -10.5273 O.2     1  UNL1       -0.2670
     17 N          18.2890   70.6024   -6.5577 N.ar    1  UNL1       -0.2551
     18 N          17.6401   70.1680   -8.8019 N.ar    1  UNL1       -0.2743
     19 C          17.2711   70.1913   -7.4505 C.ar    1  UNL1        0.3323
     20 C          19.5442   70.9489   -7.0427 C.ar    1  UNL1        0.0869
     21 C          19.8810   70.9217   -8.3336 C.ar    1  UNL1        0.0795
     22 C          18.8756   70.5028   -9.3321 C.ar    1  UNL1        0.2626
     23 H          16.9488   69.8830   -9.4423 H       1  UNL1        0.1734
     24 O          22.5490   71.0576   -1.1491 O.3     1  UNL1       -0.2703
     25 P          21.5899   71.6952   -0.0144 P.3     1  UNL1        0.2208
     26 O          21.0109   70.3937    0.7544 O.co2   1  UNL1       -0.4371
     27 O          20.5336   72.6186   -0.5487 O.2     1  UNL1       -0.5170
     28 O          22.6018   72.3754    1.0418 O.3     1  UNL1       -0.2858
     29 O          24.4020   71.7026    2.4260 O.3     1  UNL1       -0.3226
     30 O          22.1856   74.0449    5.0085 O.3     1  UNL1       -0.3794
     31 O          20.8599   72.1719    3.2006 O.3     1  UNL1       -0.3775
     32 O          24.6455   75.0748    3.8512 O.3     1  UNL1       -0.3792
     33 C          22.7142   73.6382    3.7463 C.3     1  UNL1        0.1718
     34 C          22.2623   72.2104    3.4384 C.3     1  UNL1        0.1968
     35 C          24.2407   73.7073    3.8284 C.3     1  UNL1        0.1723
     36 C          22.9907   71.6585    2.2121 C.3     1  UNL1        0.2706
     37 C          24.8945   73.0251    2.6302 C.3     1  UNL1        0.1830
     38 H          21.2165   74.0089    4.9803 H       1  UNL1        0.2105
     39 H          20.3915   72.5209    3.9746 H       1  UNL1        0.2106
     40 H          24.2361   75.5206    4.6092 H       1  UNL1        0.2106
     41 O          26.9862   73.9877    3.0769 O.co2   1  UNL1       -0.5466
     42 O          26.9043   71.7164    2.8936 O.co2   1  UNL1       -0.5466
     43 C          26.3521   72.8063    2.8745 C.2     1  UNL1        0.0799
@<TRIPOS>UNITY_ATOM_ATTR
2 1
charge -1
26 1
charge -1
41 1
charge -1
@<TRIPOS>BOND
     1     1     4    1
     2     1    24    1
     3     1     2    1
     4     1     3    2
     5    25    28    1
     6    25    24    1
     7    25    26    1
     8    25    27    2
     9     6    11    1
    10     6    12    1
    11    29    36    1
    12    29    37    1
    13     7     9    1
    14     7    13    1
    15     8    10    1
    16     8    14    1
    17     4     5    1
    18    28    36    1
    19    30    33    1
    20    30    38    1
    21    31    34    1
    22    31    39    1
    23    32    35    1
    24    32    40    1
    25    41    43   ar
    26    15    19    2
    27    42    43   ar
    28    16    22    2
    29    17    12    1
    30    17    19   ar
    31    17    20   ar
    32    18    19   ar
    33    18    22   ar
    34    18    23    1
    35     9    10    1
    36     9    11    1
    37    10    12    1
    38    11     5    1
    39    33    34    1
    40    33    35    1
    41    34    36    1
    42    35    37    1
    43    37    43    1
    44    20    21   ar
    45    21    22   ar
@<TRIPOS>MOLECULE
*****
 43 45 0 0 0
SMALL
GASTEIGER

@<TRIPOS>ATOM
      1 P          20.1218   72.3903   -1.9757 P.3     1  UNL1        0.2189
      2 O          18.7036   72.3675   -1.1965 O.co2   1  UNL1       -0.4371
      3 O          20.2287   73.4150   -3.0668 O.2     1  UNL1       -0.5170
      4 O          20.3394   70.8532   -2.4316 O.3     1  UNL1       -0.3112
      5 C          19.7419   70.4146   -3.6379 C.3     1  UNL1        0.1811
      6 O          17.9890   71.4885   -4.8836 O.3     1  UNL1       -0.3308
      7 O          16.0782   70.0802   -3.0513 O.3     1  UNL1       -0.3794
      8 O          15.9907   68.5411   -5.3006 O.3     1  UNL1       -0.3779
      9 C          17.3239   69.6255   -3.5805 C.3     1  UNL1        0.1713
     10 C          17.1729   69.2700   -5.0445 C.3     1  UNL1        0.1895
     11 C          18.2723   70.8154   -3.6378 C.3     1  UNL1        0.1764
     12 C          17.1701   70.6391   -5.7028 C.3     1  UNL1        0.2383
     13 H          15.4557   69.3372   -3.0051 H       1  UNL1        0.2105
     14 H          16.0416   67.6776   -4.8605 H       1  UNL1        0.2106
     15 O          15.6276   70.3179   -8.0468 O.2     1  UNL1       -0.2464
     16 O          19.3550   70.5391  -10.7490 O.2     1  UNL1       -0.2670
     17 N          17.7118   70.6092   -7.0319 N.ar    1  UNL1       -0.2551
     18 N          17.4857   70.4274   -9.3903 N.ar    1  UNL1       -0.2743
     19 C          16.8500   70.4428   -8.1418 C.ar    1  UNL1        0.3323
     20 C          19.0810   70.7453   -7.2261 C.ar    1  UNL1        0.0869
     21 C          19.6722   70.7287   -8.4223 C.ar    1  UNL1        0.0795
     22 C          18.8433   70.5583   -9.6336 C.ar    1  UNL1        0.2626
     23 H          16.9065   70.3107  -10.1779 H       1  UNL1        0.1734
     24 O          21.1916   72.5689   -0.7772 O.3     1  UNL1       -0.2703
     25 P          21.9187   71.4772    0.1679 P.3     1  UNL1        0.2208
     26 O          23.2183   71.0471   -0.6960 O.co2   1  UNL1       -0.4371
     27 O          21.0387   70.3304    0.5737 O.2     1  UNL1       -0.5170
     28 O          22.5133   72.3331    1.3993 O.3     1  UNL1       -0.2858
     29 O          24.2881   71.3610    2.6299 O.3     1  UNL1       -0.3226
     30 O          23.1587   74.4740    5.1000 O.3     1  UNL1       -0.3794
     31 O          21.1413   72.8353    3.7660 O.3     1  UNL1       -0.3775
     32 O          25.5803   74.6816    3.5051 O.3     1  UNL1       -0.3792
     33 C          23.3627   73.8069    3.8545 C.3     1  UNL1        0.1718
     34 C          22.5292   72.5257    3.8177 C.3     1  UNL1        0.1968
     35 C          24.8520   73.4766    3.7333 C.3     1  UNL1        0.1723
     36 C          22.8941   71.6703    2.6036 C.3     1  UNL1        0.2706
     37 C          25.1179   72.5193    2.5751 C.3     1  UNL1        0.1830
     38 H          22.2189   74.6938    5.1991 H       1  UNL1        0.2105
     39 H          20.9028   73.3782    4.5334 H       1  UNL1        0.2106
     40 H          25.4196   75.2997    4.2351 H       1  UNL1        0.2106
     41 O          26.5490   70.7305    2.0713 O.co2   1  UNL1       -0.5466
     42 O          27.4500   72.4992    3.1934 O.co2   1  UNL1       -0.5466
     43 C          26.4960   71.9491    2.6639 C.2     1  UNL1        0.0799
@<TRIPOS>UNITY_ATOM_ATTR
2 1
charge -1
26 1
charge -1
41 1
charge -1
@<TRIPOS>BOND
     1     1     4    1
     2     1    24    1
     3     1     2    1
     4     1     3    2
     5    25    28    1
     6    25    24    1
     7    25    26    1
     8    25    27    2
     9     6    11    1
    10     6    12    1
    11    29    36    1
    12    29    37    1
    13     7     9    1
    14     7    13    1
    15     8    10    1
    16     8    14    1
    17     4     5    1
    18    28    36    1
    19    30    33    1
    20    30    38    1
    21    31    34    1
    22    31    39    1
    23    32    35    1
    24    32    40    1
    25    41    43   ar
    26    15    19    2
    27    42    43   ar
    28    16    22    2
    29    17    12    1
    30    17    19   ar
    31    17    20   ar
    32    18    19   ar
    33    18    22   ar
    34    18    23    1
    35     9    10    1
    36     9    11    1
    37    10    12    1
    38    11     5    1
    39    33    34    1
    40    33    35    1
    41    34    36    1
    42    35    37    1
    43    37    43    1
    44    20    21   ar
    45    21    22   ar
@<TRIPOS>MOLECULE
*****
 43 45 0 0 0
SMALL
GASTEIGER

@<TRIPOS>ATOM
      1 P          23.5064   73.5954   -4.1690 P.3     1  UNL1        0.2189
      2 O          22.7445   75.0031   -4.4068 O.co2   1  UNL1       -0.4371
      3 O          24.9988   73.6952   -4.0481 O.2     1  UNL1       -0.5170
      4 O          22.9599   72.6511   -5.3638 O.3     1  UNL1       -0.3112
      5 C          21.5922   72.2851   -5.3646 C.3     1  UNL1        0.1811
      6 O          20.5069   70.3489   -6.2871 O.3     1  UNL1       -0.3308
      7 O          20.6623   71.7522   -8.9325 O.3     1  UNL1       -0.3794
      8 O          18.0739   72.1742   -8.1852 O.3     1  UNL1       -0.3779
      9 C          20.4384   72.2975   -7.6320 C.3     1  UNL1        0.1713
     10 C          19.0328   71.9821   -7.1663 C.3     1  UNL1        0.1895
     11 C          21.2863   71.5120   -6.6409 C.3     1  UNL1        0.1764
     12 C          19.1582   70.5271   -6.7480 C.3     1  UNL1        0.2383
     13 H          20.1309   72.2381   -9.5830 H       1  UNL1        0.2105
     14 H          18.0315   73.1160   -8.4159 H       1  UNL1        0.2106
     15 O          16.4568   69.7981   -7.1323 O.2     1  UNL1       -0.2464
     16 O          15.7790   69.2214   -2.6099 O.2     1  UNL1       -0.2670
     17 N          18.2532   70.1815   -5.6885 N.ar    1  UNL1       -0.2551
     18 N          16.1215   69.5126   -4.8794 N.ar    1  UNL1       -0.2743
     19 C          16.9159   69.8303   -5.9890 C.ar    1  UNL1        0.3323
     20 C          18.6926   70.1910   -4.3703 C.ar    1  UNL1        0.0869
     21 C          17.9237   69.8857   -3.3232 C.ar    1  UNL1        0.0795
     22 C          16.5133   69.5085   -3.5505 C.ar    1  UNL1        0.2626
     23 H          15.1861   69.2668   -5.0634 H       1  UNL1        0.1734
     24 O          22.7637   72.9967   -2.8641 O.3     1  UNL1       -0.2703
     25 P          22.8854   71.5558   -2.1411 P.3     1  UNL1        0.2208
     26 O          24.2315   70.9304   -2.7869 O.co2   1  UNL1       -0.4371
     27 O          21.6686   70.6887   -2.2875 O.2     1  UNL1       -0.5170
     28 O          23.2856   71.8958   -0.6157 O.3     1  UNL1       -0.2858
     29 O          24.6545   70.9437    1.0661 O.3     1  UNL1       -0.3226
     30 O          21.2522   71.9123    3.2000 O.3     1  UNL1       -0.3794
     31 O          21.0433   70.7238    0.5395 O.3     1  UNL1       -0.3775
     32 O          23.6439   73.5463    3.4468 O.3     1  UNL1       -0.3792
     33 C          22.2345   72.0625    2.1751 C.3     1  UNL1        0.1718
     34 C          22.2476   70.8146    1.2920 C.3     1  UNL1        0.1968
     35 C          23.5954   72.2523    2.8486 C.3     1  UNL1        0.1723
     36 C          23.4357   70.8380    0.3294 C.3     1  UNL1        0.2706
     37 C          24.7362   72.1375    1.8416 C.3     1  UNL1        0.1830
     38 H          20.3787   71.7902    2.7957 H       1  UNL1        0.2105
     39 H          20.2852   70.7088    1.1441 H       1  UNL1        0.2106
     40 H          22.9228   73.6325    4.0898 H       1  UNL1        0.2106
     41 O          26.5226   70.7298    2.4149 O.co2   1  UNL1       -0.5466
     42 O          26.6238   72.8880    3.1435 O.co2   1  UNL1       -0.5466
     43 C          26.0487   71.9941    2.5410 C.2     1  UNL1        0.0799
@<TRIPOS>UNITY_ATOM_ATTR
2 1
charge -1
26 1
charge -1
41 1
charge -1
@<TRIPOS>BOND
     1     1     4    1
     2     1    24    1
     3     1     2    1
     4     1     3    2
     5    25    28    1
     6    25    24    1
     7    25    26    1
     8    25    27    2
     9     6    11    1
    10     6    12    1
    11    29    36    1
    12    29    37    1
    13     7     9    1
    14     7    13    1
    15     8    10    1
    16     8    14    1
    17     4     5    1
    18    28    36    1
    19    30    33    1
    20    30    38    1
    21    31    34    1
    22    31    39    1
    23    32    35    1
    24    32    40    1
    25    41    43   ar
    26    15    19    2
    27    42    43   ar
    28    16    22    2
    29    17    12    1
    30    17    19   ar
    31    17    20   ar
    32    18    19   ar
    33    18    22   ar
    34    18    23    1
    35     9    10    1
    36     9    11    1
    37    10    12    1
    38    11     5    1
    39    33    34    1
    40    33    35    1
    41    34    36    1
    42    35    37    1
    43    37    43    1
    44    20    21   ar
    45    21    22   ar
@<TRIPOS>MOLECULE
*****
 43 45 0 0 0
SMALL
GASTEIGER

@<TRIPOS>ATOM
      1 P          21.2082   72.4991   -4.5519 P.3     1  UNL1        0.2189
      2 O          21.4270   74.0971   -4.4205 O.co2   1  UNL1       -0.4371
      3 O          21.7943   71.8787   -5.7861 O.2     1  UNL1       -0.5170
      4 O          19.6131   72.3082   -4.3592 O.3     1  UNL1       -0.3112
      5 C          19.1524   71.2355   -3.5583 C.3     1  UNL1        0.1811
      6 O          17.2782   71.5631   -5.0273 O.3     1  UNL1       -0.3308
      7 O          15.7549   69.7539   -3.1839 O.3     1  UNL1       -0.3794
      8 O          16.3921   68.0964   -5.2534 O.3     1  UNL1       -0.3779
      9 C          17.1264   69.6967   -3.5765 C.3     1  UNL1        0.1713
     10 C          17.2437   69.1942   -4.9999 C.3     1  UNL1        0.1895
     11 C          17.6397   71.1249   -3.6996 C.3     1  UNL1        0.1764
     12 C          16.8630   70.4269   -5.8020 C.3     1  UNL1        0.2383
     13 H          15.4048   68.8528   -3.0988 H       1  UNL1        0.2105
     14 H          16.6759   67.3371   -4.7196 H       1  UNL1        0.2106
     15 O          15.5107   70.6342   -8.2728 O.2     1  UNL1       -0.2464
     16 O          19.4612   70.5874  -10.6467 O.2     1  UNL1       -0.2670
     17 N          17.5136   70.4710   -7.0809 N.ar    1  UNL1       -0.2551
     18 N          17.4795   70.6096   -9.4528 N.ar    1  UNL1       -0.2743
     19 C          16.7417   70.5757   -8.2622 C.ar    1  UNL1        0.3323
     20 C          18.8999   70.4123   -7.1563 C.ar    1  UNL1        0.0869
     21 C          19.5890   70.4459   -8.2986 C.ar    1  UNL1        0.0795
     22 C          18.8582   70.5536   -9.5783 C.ar    1  UNL1        0.2626
     23 H          16.9639   70.6803  -10.2886 H       1  UNL1        0.1734
     24 O          21.8121   71.9347   -3.1628 O.3     1  UNL1       -0.2703
     25 P          23.3215   71.9354   -2.5835 P.3     1  UNL1        0.2208
     26 O          23.9154   73.3497   -3.1007 O.co2   1  UNL1       -0.4371
     27 O          24.1354   70.7393   -2.9842 O.2     1  UNL1       -0.5170
     28 O          23.1485   72.1245   -0.9908 O.3     1  UNL1       -0.2858
     29 O          24.3653   71.0260    0.7186 O.3     1  UNL1       -0.3226
     30 O          20.7800   71.8157    2.6134 O.3     1  UNL1       -0.3794
     31 O          20.8172   70.8632   -0.1481 O.3     1  UNL1       -0.3775
     32 O          23.1318   73.4151    3.2152 O.3     1  UNL1       -0.3792
     33 C          21.8498   72.0514    1.6979 C.3     1  UNL1        0.1718
     34 C          21.9485   70.8848    0.7147 C.3     1  UNL1        0.1968
     35 C          23.1437   72.1781    2.5052 C.3     1  UNL1        0.1723
     36 C          23.2182   70.9882   -0.1313 C.3     1  UNL1        0.2706
     37 C          24.3710   72.1477    1.5988 C.3     1  UNL1        0.1830
     38 H          19.9471   71.7317    2.1229 H       1  UNL1        0.2105
     39 H          20.0079   70.7979    0.3821 H       1  UNL1        0.2106
     40 H          22.3554   73.4472    3.7957 H       1  UNL1        0.2106
     41 O          26.0297   70.6517    2.3145 O.co2   1  UNL1       -0.5466
     42 O          26.1900   72.8073    3.0402 O.co2   1  UNL1       -0.5466
     43 C          25.6159   71.9404    2.3984 C.2     1  UNL1        0.0799
@<TRIPOS>UNITY_ATOM_ATTR
2 1
charge -1
26 1
charge -1
41 1
charge -1
@<TRIPOS>BOND
     1     1     4    1
     2     1    24    1
     3     1     2    1
     4     1     3    2
     5    25    28    1
     6    25    24    1
     7    25    26    1
     8    25    27    2
     9     6    11    1
    10     6    12    1
    11    29    36    1
    12    29    37    1
    13     7     9    1
    14     7    13    1
    15     8    10    1
    16     8    14    1
    17     4     5    1
    18    28    36    1
    19    30    33    1
    20    30    38    1
    21    31    34    1
    22    31    39    1
    23    32    35    1
    24    32    40    1
    25    41    43   ar
    26    15    19    2
    27    42    43   ar
    28    16    22    2
    29    17    12    1
    30    17    19   ar
    31    17    20   ar
    32    18    19   ar
    33    18    22   ar
    34    18    23    1
    35     9    10    1
    36     9    11    1
    37    10    12    1
    38    11     5    1
    39    33    34    1
    40    33    35    1
    41    34    36    1
    42    35    37    1
    43    37    43    1
    44    20    21   ar
    45    21    22   ar
@<TRIPOS>MOLECULE
*****
 43 45 0 0 0
SMALL
GASTEIGER

@<TRIPOS>ATOM
      1 P          22.5677   72.3493   -4.3666 P.3     1  UNL1        0.2189
      2 O          23.0042   72.5130   -5.9163 O.co2   1  UNL1       -0.4371
      3 O          23.2546   71.2375   -3.6290 O.2     1  UNL1       -0.5170
      4 O          20.9531   72.2614   -4.4249 O.3     1  UNL1       -0.3112
      5 C          20.3122   71.1684   -3.7930 C.3     1  UNL1        0.1811
      6 O          18.3751   71.9410   -4.9881 O.3     1  UNL1       -0.3308
      7 O          16.7531   70.6344   -2.8309 O.3     1  UNL1       -0.3794
      8 O          16.6117   68.8218   -4.8633 O.3     1  UNL1       -0.3779
      9 C          17.9849   70.2122   -3.4165 C.3     1  UNL1        0.1713
     10 C          17.7436   69.6645   -4.8072 C.3     1  UNL1        0.1895
     11 C          18.8186   71.4536   -3.7032 C.3     1  UNL1        0.1764
     12 C          17.5672   70.9355   -5.6204 C.3     1  UNL1        0.2383
     13 H          16.2033   69.8582   -2.6388 H       1  UNL1        0.2105
     14 H          16.7737   68.0270   -4.3304 H       1  UNL1        0.2106
     15 O          15.8448   70.3392   -7.7778 O.2     1  UNL1       -0.2464
     16 O          19.3248   70.3588  -10.7998 O.2     1  UNL1       -0.2670
     17 N          17.9966   70.7793   -6.9814 N.ar    1  UNL1       -0.2551
     18 N          17.5798   70.3485   -9.2807 N.ar    1  UNL1       -0.2743
     19 C          17.0506   70.4799   -7.9901 C.ar    1  UNL1        0.3323
     20 C          19.3400   70.9241   -7.3057 C.ar    1  UNL1        0.0869
     21 C          19.8295   70.7961   -8.5405 C.ar    1  UNL1        0.0795
     22 C          18.9078   70.4828   -9.6522 C.ar    1  UNL1        0.2626
     23 H          16.9407   70.1381   -9.9994 H       1  UNL1        0.1734
     24 O          22.8296   73.8237   -3.7580 O.3     1  UNL1       -0.2703
     25 P          24.0930   74.4302   -2.9520 P.3     1  UNL1        0.2208
     26 O          23.6686   75.9728   -2.7058 O.co2   1  UNL1       -0.4371
     27 O          25.4105   74.2552   -3.6501 O.2     1  UNL1       -0.5170
     28 O          24.0129   73.7480   -1.4923 O.3     1  UNL1       -0.2858
     29 O          22.2011   73.4575    0.0051 O.3     1  UNL1       -0.3226
     30 O          25.3534   74.0602    2.6066 O.3     1  UNL1       -0.3794
     31 O          25.0983   75.6799    0.1887 O.3     1  UNL1       -0.3775
     32 O          24.2779   71.3885    2.2116 O.3     1  UNL1       -0.3792
     33 C          24.7210   73.6157    1.4064 C.3     1  UNL1        0.1718
     34 C          24.0901   74.8089    0.6882 C.3     1  UNL1        0.1968
     35 C          23.6463   72.5953    1.7882 C.3     1  UNL1        0.1723
     36 C          23.2116   74.3454   -0.4746 C.3     1  UNL1        0.2706
     37 C          22.7333   72.2795    0.6070 C.3     1  UNL1        0.1830
     38 H          26.0405   74.7098    2.3888 H       1  UNL1        0.2105
     39 H          25.6597   75.9776    0.9212 H       1  UNL1        0.2106
     40 H          24.8621   71.5757    2.9629 H       1  UNL1        0.2106
     41 O          21.7346   70.2165    1.1052 O.co2   1  UNL1       -0.5466
     42 O          20.4490   72.0826    1.3584 O.co2   1  UNL1       -0.5466
     43 C          21.5095   71.5531    1.0619 C.2     1  UNL1        0.0799
@<TRIPOS>UNITY_ATOM_ATTR
2 1
charge -1
26 1
charge -1
41 1
charge -1
@<TRIPOS>BOND
     1     1     4    1
     2     1    24    1
     3     1     2    1
     4     1     3    2
     5    25    28    1
     6    25    24    1
     7    25    26    1
     8    25    27    2
     9     6    11    1
    10     6    12    1
    11    29    36    1
    12    29    37    1
    13     7     9    1
    14     7    13    1
    15     8    10    1
    16     8    14    1
    17     4     5    1
    18    28    36    1
    19    30    33    1
    20    30    38    1
    21    31    34    1
    22    31    39    1
    23    32    35    1
    24    32    40    1
    25    41    43   ar
    26    15    19    2
    27    42    43   ar
    28    16    22    2
    29    17    12    1
    30    17    19   ar
    31    17    20   ar
    32    18    19   ar
    33    18    22   ar
    34    18    23    1
    35     9    10    1
    36     9    11    1
    37    10    12    1
    38    11     5    1
    39    33    34    1
    40    33    35    1
    41    34    36    1
    42    35    37    1
    43    37    43    1
    44    20    21   ar
    45    21    22   ar
@<TRIPOS>MOLECULE
*****
 43 45 0 0 0
SMALL
GASTEIGER

@<TRIPOS>ATOM
      1 P          20.5261   72.1962   -1.6670 P.3     1  UNL1        0.2189
      2 O          19.1928   72.5224   -0.8097 O.co2   1  UNL1       -0.4371
      3 O          20.8856   73.2274   -2.6962 O.2     1  UNL1       -0.5170
      4 O          20.2697   70.7012   -2.2302 O.3     1  UNL1       -0.3112
      5 C          19.7503   70.5514   -3.5387 C.3     1  UNL1        0.1811
      6 O          18.0056   71.6245   -4.7964 O.3     1  UNL1       -0.3308
      7 O          16.0848   70.2636   -2.9389 O.3     1  UNL1       -0.3794
      8 O          15.9761   68.6919   -5.1647 O.3     1  UNL1       -0.3779
      9 C          17.3245   69.7882   -3.4641 C.3     1  UNL1        0.1713
     10 C          17.1664   69.4124   -4.9222 C.3     1  UNL1        0.1895
     11 C          18.2849   70.9672   -3.5413 C.3     1  UNL1        0.1764
     12 C          17.1760   70.7714   -5.6010 C.3     1  UNL1        0.2383
     13 H          15.4548   69.5278   -2.8802 H       1  UNL1        0.2105
     14 H          16.0191   67.8346   -4.7118 H       1  UNL1        0.2106
     15 O          15.6384   70.3176   -7.9262 O.2     1  UNL1       -0.2464
     16 O          19.3469   70.5790  -10.6505 O.2     1  UNL1       -0.2670
     17 N          17.7142   70.7159   -6.9307 N.ar    1  UNL1       -0.2551
     18 N          17.4871   70.4472   -9.2807 N.ar    1  UNL1       -0.2743
     19 C          16.8553   70.4822   -8.0306 C.ar    1  UNL1        0.3323
     20 C          19.0771   70.8936   -7.1353 C.ar    1  UNL1        0.0869
     21 C          19.6647   70.8577   -8.3329 C.ar    1  UNL1        0.0795
     22 C          18.8385   70.6176   -9.5342 C.ar    1  UNL1        0.2626
     23 H          16.9099   70.2839  -10.0614 H       1  UNL1        0.1734
     24 O          21.6456   71.9669   -0.5238 O.3     1  UNL1       -0.2703
     25 P          21.5013   71.6723    1.0592 P.3     1  UNL1        0.2208
     26 O          21.4999   70.0554    1.1359 O.co2   1  UNL1       -0.4371
     27 O          20.3099   72.3229    1.7005 O.2     1  UNL1       -0.5170
     28 O          22.9215   72.1085    1.6879 O.3     1  UNL1       -0.2858
     29 O          24.3174   73.6696    0.5817 O.3     1  UNL1       -0.3226
     30 O          26.9836   71.8239    3.1415 O.3     1  UNL1       -0.3794
     31 O          24.9928   70.2523    1.6919 O.3     1  UNL1       -0.3775
     32 O          25.9986   74.4934    3.7372 O.3     1  UNL1       -0.3792
     33 C          25.7150   72.3267    2.7222 C.3     1  UNL1        0.1718
     34 C          25.2847   71.6213    1.4358 C.3     1  UNL1        0.1968
     35 C          25.8587   73.8312    2.4816 C.3     1  UNL1        0.1723
     36 C          24.0486   72.2897    0.8325 C.3     1  UNL1        0.2706
     37 C          24.6379   74.3996    1.7638 C.3     1  UNL1        0.1830
     38 H          26.9168   70.8692    3.3003 H       1  UNL1        0.2105
     39 H          25.7728   69.8221    2.0751 H       1  UNL1        0.2106
     40 H          26.7721   74.1406    4.2043 H       1  UNL1        0.2106
     41 O          23.7689   76.3913    0.8809 O.co2   1  UNL1       -0.5466
     42 O          26.0291   76.2758    1.1587 O.co2   1  UNL1       -0.5466
     43 C          24.9192   75.7721    1.2447 C.2     1  UNL1        0.0799
@<TRIPOS>UNITY_ATOM_ATTR
2 1
charge -1
26 1
charge -1
41 1
charge -1
@<TRIPOS>BOND
     1     1     4    1
     2     1    24    1
     3     1     2    1
     4     1     3    2
     5    25    28    1
     6    25    24    1
     7    25    26    1
     8    25    27    2
     9     6    11    1
    10     6    12    1
    11    29    36    1
    12    29    37    1
    13     7     9    1
    14     7    13    1
    15     8    10    1
    16     8    14    1
    17     4     5    1
    18    28    36    1
    19    30    33    1
    20    30    38    1
    21    31    34    1
    22    31    39    1
    23    32    35    1
    24    32    40    1
    25    41    43   ar
    26    15    19    2
    27    42    43   ar
    28    16    22    2
    29    17    12    1
    30    17    19   ar
    31    17    20   ar
    32    18    19   ar
    33    18    22   ar
    34    18    23    1
    35     9    10    1
    36     9    11    1
    37    10    12    1
    38    11     5    1
    39    33    34    1
    40    33    35    1
    41    34    36    1
    42    35    37    1
    43    37    43    1
    44    20    21   ar
    45    21    22   ar
@<TRIPOS>MOLECULE
*****
 43 45 0 0 0
SMALL
GASTEIGER

@<TRIPOS>ATOM
      1 P          21.4928   71.1140   -2.3490 P.3     1  UNL1        0.2189
      2 O          22.0032   70.0313   -3.4380 O.co2   1  UNL1       -0.4371
      3 O          22.0684   70.9484   -0.9731 O.2     1  UNL1       -0.5170
      4 O          19.8798   71.0357   -2.4498 O.3     1  UNL1       -0.3112
      5 C          19.3036   70.3310   -3.5342 C.3     1  UNL1        0.1811
      6 O          17.6415   71.3997   -4.9028 O.3     1  UNL1       -0.3308
      7 O          15.6099   69.9376   -3.2516 O.3     1  UNL1       -0.3794
      8 O          15.7276   68.4319   -5.5221 O.3     1  UNL1       -0.3779
      9 C          16.9009   69.5081   -3.6844 C.3     1  UNL1        0.1713
     10 C          16.8742   69.1729   -5.1606 C.3     1  UNL1        0.1895
     11 C          17.8330   70.7115   -3.6478 C.3     1  UNL1        0.1764
     12 C          16.9043   70.5517   -5.7977 C.3     1  UNL1        0.2383
     13 H          14.9968   69.1856   -3.2666 H       1  UNL1        0.2105
     14 H          15.7555   67.5625   -5.0915 H       1  UNL1        0.2106
     15 O          15.5445   70.5978   -8.2727 O.2     1  UNL1       -0.2464
     16 O          19.4925   70.5404  -10.6504 O.2     1  UNL1       -0.2670
     17 N          17.5522   70.5494   -7.0788 N.ar    1  UNL1       -0.2551
     18 N          17.5121   70.5681   -9.4545 N.ar    1  UNL1       -0.2743
     19 C          16.7766   70.5737   -8.2620 C.ar    1  UNL1        0.3323
     20 C          18.9395   70.5251   -7.1543 C.ar    1  UNL1        0.0869
     21 C          19.6264   70.5202   -8.2984 C.ar    1  UNL1        0.0795
     22 C          18.8917   70.5436   -9.5802 C.ar    1  UNL1        0.2626
     23 H          16.9940   70.5826  -10.2916 H       1  UNL1        0.1734
     24 O          21.8328   72.5274   -3.0556 O.3     1  UNL1       -0.2703
     25 P          23.2477   73.2434   -3.3704 P.3     1  UNL1        0.2208
     26 O          22.8120   74.6086   -4.1233 O.co2   1  UNL1       -0.4371
     27 O          24.2106   72.3906   -4.1446 O.2     1  UNL1       -0.5170
     28 O          23.7906   73.7279   -1.9306 O.3     1  UNL1       -0.2858
     29 O          22.5949   73.9680    0.0996 O.3     1  UNL1       -0.3226
     30 O          25.5058   76.8736    0.4897 O.3     1  UNL1       -0.3794
     31 O          24.1336   76.4850   -2.0599 O.3     1  UNL1       -0.3775
     32 O          25.7270   74.3790    1.9658 O.3     1  UNL1       -0.3792
     33 C          24.9563   75.6294    0.0560 C.3     1  UNL1        0.1718
     34 C          23.7376   75.8893   -0.8299 C.3     1  UNL1        0.1968
     35 C          24.5511   74.8328    1.2982 C.3     1  UNL1        0.1723
     36 C          22.9884   74.5891   -1.1247 C.3     1  UNL1        0.2706
     37 C          23.7008   73.6204    0.9297 C.3     1  UNL1        0.1830
     38 H          25.7705   77.3972   -0.2830 H       1  UNL1        0.2105
     39 H          24.6099   77.3104   -1.8803 H       1  UNL1        0.2106
     40 H          26.2771   75.1410    2.2057 H       1  UNL1        0.2106
     41 O          21.6999   72.9735    1.9686 O.co2   1  UNL1       -0.5466
     42 O          23.6271   72.6855    3.1527 O.co2   1  UNL1       -0.5466
     43 C          23.0429   73.0457    2.1418 C.2     1  UNL1        0.0799
@<TRIPOS>UNITY_ATOM_ATTR
2 1
charge -1
26 1
charge -1
41 1
charge -1
@<TRIPOS>BOND
     1     1     4    1
     2     1    24    1
     3     1     2    1
     4     1     3    2
     5    25    28    1
     6    25    24    1
     7    25    26    1
     8    25    27    2
     9     6    11    1
    10     6    12    1
    11    29    36    1
    12    29    37    1
    13     7     9    1
    14     7    13    1
    15     8    10    1
    16     8    14    1
    17     4     5    1
    18    28    36    1
    19    30    33    1
    20    30    38    1
    21    31    34    1
    22    31    39    1
    23    32    35    1
    24    32    40    1
    25    41    43   ar
    26    15    19    2
    27    42    43   ar
    28    16    22    2
    29    17    12    1
    30    17    19   ar
    31    17    20   ar
    32    18    19   ar
    33    18    22   ar
    34    18    23    1
    35     9    10    1
    36     9    11    1
    37    10    12    1
    38    11     5    1
    39    33    34    1
    40    33    35    1
    41    34    36    1
    42    35    37    1
    43    37    43    1
    44    20    21   ar
    45    21    22   ar
@<TRIPOS>MOLECULE
*****
 43 45 0 0 0
SMALL
GASTEIGER

@<TRIPOS>ATOM
      1 P          22.9765   71.3471   -2.4802 P.3     1  UNL1        0.2189
      2 O          22.5465   72.9046   -2.5704 O.co2   1  UNL1       -0.4371
      3 O          24.3357   71.0320   -3.0327 O.2     1  UNL1       -0.5170
      4 O          21.7397   70.5621   -3.1672 O.3     1  UNL1       -0.3112
      5 C          20.9999   71.2199   -4.1794 C.3     1  UNL1        0.1811
      6 O          21.0893   70.5582   -6.4884 O.3     1  UNL1       -0.3308
      7 O          23.2345   72.6292   -6.8059 O.3     1  UNL1       -0.3794
      8 O          21.0366   73.8882   -7.8160 O.3     1  UNL1       -0.3779
      9 C          22.0646   72.6580   -5.9879 C.3     1  UNL1        0.1713
     10 C          20.8345   72.8873   -6.8403 C.3     1  UNL1        0.1895
     11 C          21.8272   71.2504   -5.4580 C.3     1  UNL1        0.1764
     12 C          20.6122   71.5134   -7.4493 C.3     1  UNL1        0.2383
     13 H          23.4065   73.5177   -7.1561 H       1  UNL1        0.2105
     14 H          21.1731   74.7436   -7.3782 H       1  UNL1        0.2106
     15 O          19.5985   70.7344   -9.9676 O.2     1  UNL1       -0.2464
     16 O          15.2791   70.5357   -8.3714 O.2     1  UNL1       -0.2670
     17 N          19.2269   71.2516   -7.7197 N.ar    1  UNL1       -0.2551
     18 N          17.4480   70.6372   -9.1704 N.ar    1  UNL1       -0.2743
     19 C          18.8220   70.8662   -9.0196 C.ar    1  UNL1        0.3323
     20 C          18.2865   71.3754   -6.7042 C.ar    1  UNL1        0.0869
     21 C          16.9802   71.1536   -6.8632 C.ar    1  UNL1        0.0795
     22 C          16.4744   70.7480   -8.1910 C.ar    1  UNL1        0.2626
     23 H          17.1420   70.3697  -10.0672 H       1  UNL1        0.1734
     24 O          22.7934   71.0104   -0.9099 O.3     1  UNL1       -0.2703
     25 P          21.4841   71.0471    0.0379 P.3     1  UNL1        0.2208
     26 O          21.8142   69.9358    1.1677 O.co2   1  UNL1       -0.4371
     27 O          20.1904   70.8233   -0.6903 O.2     1  UNL1       -0.5170
     28 O          21.5801   72.4580    0.8141 O.3     1  UNL1       -0.2858
     29 O          21.5695   72.7132    3.1686 O.3     1  UNL1       -0.3226
     30 O          20.1751   76.3954    1.9176 O.3     1  UNL1       -0.3794
     31 O          19.2351   73.9432    0.6380 O.3     1  UNL1       -0.3775
     32 O          22.9088   76.1158    2.8662 O.3     1  UNL1       -0.3792
     33 C          20.9393   75.1928    1.8296 C.3     1  UNL1        0.1718
     34 C          19.9991   73.9873    1.8376 C.3     1  UNL1        0.1968
     35 C          21.8807   75.1415    3.0351 C.3     1  UNL1        0.1723
     36 C          20.7841   72.6821    1.9763 C.3     1  UNL1        0.2706
     37 C          22.5294   73.7677    3.1773 C.3     1  UNL1        0.1830
     38 H          19.5694   76.4498    1.1616 H       1  UNL1        0.2105
     39 H          18.7346   74.7684    0.5434 H       1  UNL1        0.2106
     40 H          22.5092   76.9949    2.7743 H       1  UNL1        0.2106
     41 O          22.5844   72.6304    5.2279 O.co2   1  UNL1       -0.5466
     42 O          24.1094   74.2977    4.9220 O.co2   1  UNL1       -0.5466
     43 C          23.1754   73.6222    4.5166 C.2     1  UNL1        0.0799
@<TRIPOS>UNITY_ATOM_ATTR
2 1
charge -1
26 1
charge -1
41 1
charge -1
@<TRIPOS>BOND
     1     1     4    1
     2     1    24    1
     3     1     2    1
     4     1     3    2
     5    25    28    1
     6    25    24    1
     7    25    26    1
     8    25    27    2
     9     6    11    1
    10     6    12    1
    11    29    36    1
    12    29    37    1
    13     7     9    1
    14     7    13    1
    15     8    10    1
    16     8    14    1
    17     4     5    1
    18    28    36    1
    19    30    33    1
    20    30    38    1
    21    31    34    1
    22    31    39    1
    23    32    35    1
    24    32    40    1
    25    41    43   ar
    26    15    19    2
    27    42    43   ar
    28    16    22    2
    29    17    12    1
    30    17    19   ar
    31    17    20   ar
    32    18    19   ar
    33    18    22   ar
    34    18    23    1
    35     9    10    1
    36     9    11    1
    37    10    12    1
    38    11     5    1
    39    33    34    1
    40    33    35    1
    41    34    36    1
    42    35    37    1
    43    37    43    1
    44    20    21   ar
    45    21    22   ar
@<TRIPOS>MOLECULE
*****
 43 45 0 0 0
SMALL
GASTEIGER

@<TRIPOS>ATOM
      1 P          20.5215   71.7578   -1.9371 P.3     1  UNL1        0.2189
      2 O          20.2287   70.5372   -0.9157 O.co2   1  UNL1       -0.4371
      3 O          19.9195   73.0740   -1.5406 O.2     1  UNL1       -0.5170
      4 O          20.0604   71.1794   -3.3761 O.3     1  UNL1       -0.3112
      5 C          19.2158   70.0436   -3.4091 C.3     1  UNL1        0.1811
      6 O          17.6306   71.2914   -4.7160 O.3     1  UNL1       -0.3308
      7 O          15.5031   69.8175   -3.2018 O.3     1  UNL1       -0.3794
      8 O          15.5826   68.4768   -5.5751 O.3     1  UNL1       -0.3779
      9 C          16.7781   69.3561   -3.6490 C.3     1  UNL1        0.1713
     10 C          16.7585   69.1309   -5.1460 C.3     1  UNL1        0.1895
     11 C          17.7678   70.5051   -3.5126 C.3     1  UNL1        0.1764
     12 C          16.8668   70.5491   -5.6797 C.3     1  UNL1        0.2383
     13 H          14.8539   69.1004   -3.2795 H       1  UNL1        0.2105
     14 H          15.5606   67.5782   -5.2092 H       1  UNL1        0.2106
     15 O          15.5570   70.4068   -8.1779 O.2     1  UNL1       -0.2464
     16 O          19.5283   70.7825  -10.4870 O.2     1  UNL1       -0.2670
     17 N          17.5342   70.6073   -6.9494 N.ar    1  UNL1       -0.2551
     18 N          17.5363   70.5930   -9.3255 N.ar    1  UNL1       -0.2743
     19 C          16.7832   70.5268   -8.1459 C.ar    1  UNL1        0.3323
     20 C          18.9160   70.7441   -7.0010 C.ar    1  UNL1        0.0869
     21 C          19.6199   70.8059   -8.1330 C.ar    1  UNL1        0.0795
     22 C          18.9114   70.7282   -9.4274 C.ar    1  UNL1        0.2626
     23 H          17.0356   70.5371  -10.1714 H       1  UNL1        0.1734
     24 O          22.1342   71.7607   -2.0464 O.3     1  UNL1       -0.2703
     25 P          23.1385   72.6958   -2.9011 P.3     1  UNL1        0.2208
     26 O          24.1720   71.6323   -3.5501 O.co2   1  UNL1       -0.4371
     27 O          23.7931   73.7864   -2.1036 O.2     1  UNL1       -0.5170
     28 O          22.2539   73.2156   -4.1460 O.3     1  UNL1       -0.2858
     29 O          22.7738   75.4695   -4.6545 O.3     1  UNL1       -0.3226
     30 O          19.6804   74.7064   -7.2845 O.3     1  UNL1       -0.3794
     31 O          19.5508   73.7482   -4.5278 O.3     1  UNL1       -0.3775
     32 O          22.4223   74.8037   -8.2455 O.3     1  UNL1       -0.3792
     33 C          20.8240   74.3901   -6.4907 C.3     1  UNL1        0.1718
     34 C          20.5183   74.6688   -5.0188 C.3     1  UNL1        0.1968
     35 C          21.9868   75.2633   -6.9674 C.3     1  UNL1        0.1723
     36 C          21.7842   74.5623   -4.1674 C.3     1  UNL1        0.2706
     37 C          23.1644   75.2001   -5.9990 C.3     1  UNL1        0.1830
     38 H          18.9286   74.1635   -6.9995 H       1  UNL1        0.2105
     39 H          18.7450   73.8101   -5.0636 H       1  UNL1        0.2106
     40 H          21.6819   74.8388   -8.8712 H       1  UNL1        0.2106
     41 O          24.0173   77.2995   -5.3934 O.co2   1  UNL1       -0.5466
     42 O          24.9607   76.2750   -7.1988 O.co2   1  UNL1       -0.5466
     43 C          24.1472   76.2880   -6.2873 C.2     1  UNL1        0.0799
@<TRIPOS>UNITY_ATOM_ATTR
2 1
charge -1
26 1
charge -1
41 1
charge -1
@<TRIPOS>BOND
     1     1     4    1
     2     1    24    1
     3     1     2    1
     4     1     3    2
     5    25    28    1
     6    25    24    1
     7    25    26    1
     8    25    27    2
     9     6    11    1
    10     6    12    1
    11    29    36    1
    12    29    37    1
    13     7     9    1
    14     7    13    1
    15     8    10    1
    16     8    14    1
    17     4     5    1
    18    28    36    1
    19    30    33    1
    20    30    38    1
    21    31    34    1
    22    31    39    1
    23    32    35    1
    24    32    40    1
    25    41    43   ar
    26    15    19    2
    27    42    43   ar
    28    16    22    2
    29    17    12    1
    30    17    19   ar
    31    17    20   ar
    32    18    19   ar
    33    18    22   ar
    34    18    23    1
    35     9    10    1
    36     9    11    1
    37    10    12    1
    38    11     5    1
    39    33    34    1
    40    33    35    1
    41    34    36    1
    42    35    37    1
    43    37    43    1
    44    20    21   ar
    45    21    22   ar
@<TRIPOS>MOLECULE
*****
 43 45 0 0 0
SMALL
GASTEIGER

@<TRIPOS>ATOM
      1 P          22.0600   72.9405   -4.7236 P.3     1  UNL1        0.2189
      2 O          21.5058   74.2556   -5.4868 O.co2   1  UNL1       -0.4371
      3 O          23.4469   72.5197   -5.1123 O.2     1  UNL1       -0.5170
      4 O          20.8995   71.8376   -4.9578 O.3     1  UNL1       -0.3112
      5 C          20.3811   71.1523   -3.8326 C.3     1  UNL1        0.1811
      6 O          18.4252   71.9342   -4.9906 O.3     1  UNL1       -0.3308
      7 O          16.8391   70.6557   -2.7904 O.3     1  UNL1       -0.3794
      8 O          16.6380   68.8316   -4.8074 O.3     1  UNL1       -0.3779
      9 C          18.0543   70.2190   -3.3997 C.3     1  UNL1        0.1713
     10 C          17.7781   69.6646   -4.7813 C.3     1  UNL1        0.1895
     11 C          18.8923   71.4511   -3.7124 C.3     1  UNL1        0.1764
     12 C          17.5952   70.9320   -5.5988 C.3     1  UNL1        0.2383
     13 H          16.2869   69.8856   -2.5814 H       1  UNL1        0.2105
     14 H          16.8046   68.0387   -4.2729 H       1  UNL1        0.2106
     15 O          15.8496   70.1764   -7.6865 O.2     1  UNL1       -0.2464
     16 O          19.2338   70.3152  -10.8125 O.2     1  UNL1       -0.2670
     17 N          17.9937   70.7633   -6.9676 N.ar    1  UNL1       -0.2551
     18 N          17.5370   70.2453   -9.2412 N.ar    1  UNL1       -0.2743
     19 C          17.0383   70.3813   -7.9389 C.ar    1  UNL1        0.3323
     20 C          19.3163   70.9772   -7.3363 C.ar    1  UNL1        0.0869
     21 C          19.7766   70.8437   -8.5818 C.ar    1  UNL1        0.0795
     22 C          18.8434   70.4464   -9.6563 C.ar    1  UNL1        0.2626
     23 H          16.8909   69.9780   -9.9345 H       1  UNL1        0.1734
     24 O          21.8855   73.3258   -3.1635 O.3     1  UNL1       -0.2703
     25 P          22.7392   74.3164   -2.2130 P.3     1  UNL1        0.2208
     26 O          21.9385   75.7187   -2.3260 O.co2   1  UNL1       -0.4371
     27 O          24.1956   74.4057   -2.5667 O.2     1  UNL1       -0.5170
     28 O          22.4449   73.7992   -0.7135 O.3     1  UNL1       -0.2858
     29 O          23.6526   73.5373    1.3069 O.3     1  UNL1       -0.3226
     30 O          21.5777   69.9708    1.0994 O.3     1  UNL1       -0.3794
     31 O          22.8175   71.1040   -1.2908 O.3     1  UNL1       -0.3775
     32 O          20.7201   72.0531    2.9378 O.3     1  UNL1       -0.3792
     33 C          21.7936   71.3668    0.8929 C.3     1  UNL1        0.1718
     34 C          23.0425   71.5700    0.0346 C.3     1  UNL1        0.1968
     35 C          21.9761   72.0248    2.2624 C.3     1  UNL1        0.1723
     36 C          23.4365   73.0468   -0.0168 C.3     1  UNL1        0.2706
     37 C          22.4906   73.4552    2.1291 C.3     1  UNL1        0.1830
     38 H          21.4591   69.5315    0.2425 H       1  UNL1        0.2105
     39 H          22.5668   70.1676   -1.2657 H       1  UNL1        0.2106
     40 H          20.3816   71.1487    3.0290 H       1  UNL1        0.2106
     41 O          22.9453   72.9899    4.3826 O.co2   1  UNL1       -0.5466
     42 O          23.3483   75.1137    3.6573 O.co2   1  UNL1       -0.5466
     43 C          22.9742   73.9699    3.4458 C.2     1  UNL1        0.0799
@<TRIPOS>UNITY_ATOM_ATTR
2 1
charge -1
26 1
charge -1
41 1
charge -1
@<TRIPOS>BOND
     1     1     4    1
     2     1    24    1
     3     1     2    1
     4     1     3    2
     5    25    28    1
     6    25    24    1
     7    25    26    1
     8    25    27    2
     9     6    11    1
    10     6    12    1
    11    29    36    1
    12    29    37    1
    13     7     9    1
    14     7    13    1
    15     8    10    1
    16     8    14    1
    17     4     5    1
    18    28    36    1
    19    30    33    1
    20    30    38    1
    21    31    34    1
    22    31    39    1
    23    32    35    1
    24    32    40    1
    25    41    43   ar
    26    15    19    2
    27    42    43   ar
    28    16    22    2
    29    17    12    1
    30    17    19   ar
    31    17    20   ar
    32    18    19   ar
    33    18    22   ar
    34    18    23    1
    35     9    10    1
    36     9    11    1
    37    10    12    1
    38    11     5    1
    39    33    34    1
    40    33    35    1
    41    34    36    1
    42    35    37    1
    43    37    43    1
    44    20    21   ar
    45    21    22   ar
@<TRIPOS>MOLECULE
*****
 43 45 0 0 0
SMALL
GASTEIGER

@<TRIPOS>ATOM
      1 P          23.2341   75.3947   -3.7140 P.3     1  UNL1        0.2189
      2 O          24.6684   75.0421   -4.3753 O.co2   1  UNL1       -0.4371
      3 O          22.9124   76.8587   -3.6419 O.2     1  UNL1       -0.5170
      4 O          23.2547   74.6093   -2.2996 O.3     1  UNL1       -0.3112
      5 C          22.0462   74.0498   -1.8192 C.3     1  UNL1        0.1811
      6 O          23.3936   72.1076   -1.3832 O.3     1  UNL1       -0.3308
      7 O          20.8676   70.5186   -1.6767 O.3     1  UNL1       -0.3794
      8 O          21.1687   70.6644    1.0296 O.3     1  UNL1       -0.3779
      9 C          21.0590   71.8149   -1.1097 C.3     1  UNL1        0.1713
     10 C          21.7225   71.7010    0.2465 C.3     1  UNL1        0.1895
     11 C          22.1249   72.5323   -1.9266 C.3     1  UNL1        0.1764
     12 C          23.1702   71.4386   -0.1318 C.3     1  UNL1        0.2383
     13 H          20.1907   70.0410   -1.1714 H       1  UNL1        0.2105
     14 H          20.2468   70.8786    1.2443 H       1  UNL1        0.2106
     15 O          24.6804   69.8316    1.6326 O.2     1  UNL1       -0.2464
     16 O          26.6775   73.5094    3.5639 O.2     1  UNL1       -0.2670
     17 N          24.0924   71.9501    0.8422 N.ar    1  UNL1       -0.2551
     18 N          25.6729   71.6649    2.5935 N.ar    1  UNL1       -0.2743
     19 C          24.8013   71.0572    1.6803 C.ar    1  UNL1        0.3323
     20 C          24.2885   73.3208    0.9590 C.ar    1  UNL1        0.0869
     21 C          25.1228   73.8853    1.8343 C.ar    1  UNL1        0.0795
     22 C          25.9011   73.0228    2.7475 C.ar    1  UNL1        0.2626
     23 H          26.1760   71.0637    3.1891 H       1  UNL1        0.1734
     24 O          22.2017   74.5213   -4.5996 O.3     1  UNL1       -0.2703
     25 P          22.4620   73.4090   -5.7435 P.3     1  UNL1        0.2208
     26 O          23.4212   72.3352   -5.0038 O.co2   1  UNL1       -0.4371
     27 O          23.0223   73.9606   -7.0225 O.2     1  UNL1       -0.5170
     28 O          21.0482   72.6490   -5.9047 O.3     1  UNL1       -0.2858
     29 O          20.2772   70.4599   -5.4332 O.3     1  UNL1       -0.3226
     30 O          18.3907   71.2611   -9.0202 O.3     1  UNL1       -0.3794
     31 O          21.1809   72.0240   -8.6117 O.3     1  UNL1       -0.3775
     32 O          16.8915   71.3507   -6.5312 O.3     1  UNL1       -0.3792
     33 C          18.9588   71.5734   -7.7484 C.3     1  UNL1        0.1718
     34 C          20.4369   71.1826   -7.7382 C.3     1  UNL1        0.1968
     35 C          18.1930   70.7869   -6.6823 C.3     1  UNL1        0.1723
     36 C          21.0208   71.2873   -6.3287 C.3     1  UNL1        0.2706
     37 C          18.9056   70.8367   -5.3339 C.3     1  UNL1        0.1830
     38 H          18.8616   71.7496   -9.7137 H       1  UNL1        0.2105
     39 H          20.8157   71.9627   -9.5079 H       1  UNL1        0.2106
     40 H          16.4273   71.3252   -7.3825 H       1  UNL1        0.2106
     41 O          17.2737   69.1953   -4.9545 O.co2   1  UNL1       -0.5466
     42 O          18.7838   69.5656   -3.2867 O.co2   1  UNL1       -0.5466
     43 C          18.3440   69.8155   -4.3990 C.2     1  UNL1        0.0799
@<TRIPOS>UNITY_ATOM_ATTR
2 1
charge -1
26 1
charge -1
41 1
charge -1
@<TRIPOS>BOND
     1     1     4    1
     2     1    24    1
     3     1     2    1
     4     1     3    2
     5    25    28    1
     6    25    24    1
     7    25    26    1
     8    25    27    2
     9     6    11    1
    10     6    12    1
    11    29    36    1
    12    29    37    1
    13     7     9    1
    14     7    13    1
    15     8    10    1
    16     8    14    1
    17     4     5    1
    18    28    36    1
    19    30    33    1
    20    30    38    1
    21    31    34    1
    22    31    39    1
    23    32    35    1
    24    32    40    1
    25    41    43   ar
    26    15    19    2
    27    42    43   ar
    28    16    22    2
    29    17    12    1
    30    17    19   ar
    31    17    20   ar
    32    18    19   ar
    33    18    22   ar
    34    18    23    1
    35     9    10    1
    36     9    11    1
    37    10    12    1
    38    11     5    1
    39    33    34    1
    40    33    35    1
    41    34    36    1
    42    35    37    1
    43    37    43    1
    44    20    21   ar
    45    21    22   ar
@<TRIPOS>MOLECULE
*****
 43 45 0 0 0
SMALL
GASTEIGER

@<TRIPOS>ATOM
      1 P          22.7625   72.6112   -3.8647 P.3     1  UNL1        0.2189
      2 O          22.1133   71.1522   -3.6027 O.co2   1  UNL1       -0.4371
      3 O          24.1741   72.5945   -4.3736 O.2     1  UNL1       -0.5170
      4 O          22.5277   73.3971   -2.4700 O.3     1  UNL1       -0.3112
      5 C          21.4954   74.3638   -2.4041 C.3     1  UNL1        0.1811
      6 O          20.8112   72.5969   -0.9251 O.3     1  UNL1       -0.3308
      7 O          18.6240   74.4436   -0.0320 O.3     1  UNL1       -0.3794
      8 O          20.4563   74.6760    1.9741 O.3     1  UNL1       -0.3779
      9 C          19.9675   74.7487   -0.4066 C.3     1  UNL1        0.1713
     10 C          20.9252   74.3284    0.6881 C.3     1  UNL1        0.1895
     11 C          20.3598   73.8194   -1.5472 C.3     1  UNL1        0.1764
     12 C          21.0020   72.8255    0.4801 C.3     1  UNL1        0.2383
     13 H          18.3509   75.0247    0.6955 H       1  UNL1        0.2105
     14 H          20.4259   75.6425    2.0568 H       1  UNL1        0.2106
     15 O          21.4761   70.0879    0.9877 O.2     1  UNL1       -0.2464
     16 O          25.9109   70.8530    1.9834 O.2     1  UNL1       -0.2670
     17 N          22.2711   72.2819    0.8735 N.ar    1  UNL1       -0.2551
     18 N          23.6842   70.4717    1.4841 N.ar    1  UNL1       -0.2743
     19 C          22.4027   70.8921    1.1043 C.ar    1  UNL1        0.3323
     20 C          23.3681   73.1212    1.0253 C.ar    1  UNL1        0.0869
     21 C          24.5833   72.7059    1.3879 C.ar    1  UNL1        0.0795
     22 C          24.8056   71.2685    1.6488 C.ar    1  UNL1        0.2626
     23 H          23.7999   69.5086    1.6523 H       1  UNL1        0.1734
     24 O          21.6965   73.3095   -4.8591 O.3     1  UNL1       -0.2703
     25 P          21.5257   73.2200   -6.4643 P.3     1  UNL1        0.2208
     26 O          22.6851   72.1786   -6.9020 O.co2   1  UNL1       -0.4371
     27 O          21.5888   74.5461   -7.1652 O.2     1  UNL1       -0.5170
     28 O          20.1475   72.4110   -6.6848 O.3     1  UNL1       -0.2858
     29 O          19.6441   70.2687   -5.8093 O.3     1  UNL1       -0.3226
     30 O          17.2172   70.4033   -9.1499 O.3     1  UNL1       -0.3794
     31 O          19.9593   71.4036   -9.2704 O.3     1  UNL1       -0.3775
     32 O          16.0742   70.7585   -6.5007 O.3     1  UNL1       -0.3792
     33 C          17.9260   70.9374   -8.0318 C.3     1  UNL1        0.1718
     34 C          19.4198   70.6523   -8.1892 C.3     1  UNL1        0.1968
     35 C          17.3867   70.2672   -6.7661 C.3     1  UNL1        0.1723
     36 C          20.1814   71.0029   -6.9102 C.3     1  UNL1        0.2706
     37 C          18.2717   70.5632   -5.5587 C.3     1  UNL1        0.1830
     38 H          17.5430   70.8146   -9.9660 H       1  UNL1        0.2105
     39 H          19.4805   71.1863  -10.0853 H       1  UNL1        0.2106
     40 H          15.5009   70.5766   -7.2616 H       1  UNL1        0.2106
     41 O          18.7409   69.9043   -3.3571 O.co2   1  UNL1       -0.5466
     42 O          17.0585   68.8061   -4.4352 O.co2   1  UNL1       -0.5466
     43 C          17.9364   69.6558   -4.4201 C.2     1  UNL1        0.0799
@<TRIPOS>UNITY_ATOM_ATTR
2 1
charge -1
26 1
charge -1
41 1
charge -1
@<TRIPOS>BOND
     1     1     4    1
     2     1    24    1
     3     1     2    1
     4     1     3    2
     5    25    28    1
     6    25    24    1
     7    25    26    1
     8    25    27    2
     9     6    11    1
    10     6    12    1
    11    29    36    1
    12    29    37    1
    13     7     9    1
    14     7    13    1
    15     8    10    1
    16     8    14    1
    17     4     5    1
    18    28    36    1
    19    30    33    1
    20    30    38    1
    21    31    34    1
    22    31    39    1
    23    32    35    1
    24    32    40    1
    25    41    43   ar
    26    15    19    2
    27    42    43   ar
    28    16    22    2
    29    17    12    1
    30    17    19   ar
    31    17    20   ar
    32    18    19   ar
    33    18    22   ar
    34    18    23    1
    35     9    10    1
    36     9    11    1
    37    10    12    1
    38    11     5    1
    39    33    34    1
    40    33    35    1
    41    34    36    1
    42    35    37    1
    43    37    43    1
    44    20    21   ar
    45    21    22   ar
@<TRIPOS>MOLECULE
*****
 43 45 0 0 0
SMALL
GASTEIGER

@<TRIPOS>ATOM
      1 P          22.1859   71.5950   -2.6239 P.3     1  UNL1        0.2189
      2 O          22.1530   73.1887   -2.3450 O.co2   1  UNL1       -0.4371
      3 O          23.5024   71.0640   -3.1103 O.2     1  UNL1       -0.5170
      4 O          20.9226   71.3459   -3.6038 O.3     1  UNL1       -0.3112
      5 C          20.2643   72.4704   -4.1574 C.3     1  UNL1        0.1811
      6 O          18.1357   72.4270   -5.2731 O.3     1  UNL1       -0.3308
      7 O          17.0895   71.0488   -2.8241 O.3     1  UNL1       -0.3794
      8 O          17.4344   68.9821   -4.5694 O.3     1  UNL1       -0.3779
      9 C          18.3664   70.9301   -3.4518 C.3     1  UNL1        0.1713
     10 C          18.2501   70.1241   -4.7282 C.3     1  UNL1        0.1895
     11 C          18.7610   72.3036   -3.9773 C.3     1  UNL1        0.1764
     12 C          17.6546   71.1390   -5.6890 C.3     1  UNL1        0.2383
     13 H          16.8162   70.1834   -2.4804 H       1  UNL1        0.2105
     14 H          17.8568   68.3668   -3.9491 H       1  UNL1        0.2106
     15 O          15.9084   70.3051   -7.7461 O.2     1  UNL1       -0.2464
     16 O          19.3008   70.2822  -10.8662 O.2     1  UNL1       -0.2670
     17 N          18.0550   70.9076   -7.0480 N.ar    1  UNL1       -0.2551
     18 N          17.5998   70.2935   -9.2979 N.ar    1  UNL1       -0.2743
     19 C          17.0992   70.4902   -8.0042 C.ar    1  UNL1        0.3323
     20 C          19.3800   71.0956   -7.4223 C.ar    1  UNL1        0.0869
     21 C          19.8422   70.9043   -8.6594 C.ar    1  UNL1        0.0795
     22 C          18.9087   70.4668   -9.7180 C.ar    1  UNL1        0.2626
     23 H          16.9535   70.0007   -9.9805 H       1  UNL1        0.1734
     24 O          21.6853   70.9703   -1.2196 O.3     1  UNL1       -0.2703
     25 P          22.2953   71.0898    0.2727 P.3     1  UNL1        0.2208
     26 O          23.8930   71.1375    0.0165 O.co2   1  UNL1       -0.4371
     27 O          21.8513   70.0029    1.2084 O.2     1  UNL1       -0.5170
     28 O          21.9151   72.5825    0.7520 O.3     1  UNL1       -0.2858
     29 O          20.9229   73.3626    2.7560 O.3     1  UNL1       -0.3226
     30 O          19.4159   76.0253   -0.0201 O.3     1  UNL1       -0.3794
     31 O          19.5810   73.1752   -0.6397 O.3     1  UNL1       -0.3775
     32 O          21.5462   76.8442    1.7804 O.3     1  UNL1       -0.3792
     33 C          20.3809   75.1367    0.5430 C.3     1  UNL1        0.1718
     34 C          19.7821   73.7342    0.6532 C.3     1  UNL1        0.1968
     35 C          20.7580   75.6648    1.9289 C.3     1  UNL1        0.1723
     36 C          20.6970   72.8105    1.4585 C.3     1  UNL1        0.2706
     37 C          21.5635   74.6359    2.7170 C.3     1  UNL1        0.1830
     38 H          19.1611   75.7097   -0.9015 H       1  UNL1        0.2105
     39 H          19.0016   73.7563   -1.1562 H       1  UNL1        0.2106
     40 H          21.0451   77.5072    1.2803 H       1  UNL1        0.2106
     41 O          20.8293   74.2293    4.9073 O.co2   1  UNL1       -0.5466
     42 O          22.3424   75.9094    4.6125 O.co2   1  UNL1       -0.5466
     43 C          21.6425   75.0160    4.1598 C.2     1  UNL1        0.0799
@<TRIPOS>UNITY_ATOM_ATTR
2 1
charge -1
26 1
charge -1
41 1
charge -1
@<TRIPOS>BOND
     1     1     4    1
     2     1    24    1
     3     1     2    1
     4     1     3    2
     5    25    28    1
     6    25    24    1
     7    25    26    1
     8    25    27    2
     9     6    11    1
    10     6    12    1
    11    29    36    1
    12    29    37    1
    13     7     9    1
    14     7    13    1
    15     8    10    1
    16     8    14    1
    17     4     5    1
    18    28    36    1
    19    30    33    1
    20    30    38    1
    21    31    34    1
    22    31    39    1
    23    32    35    1
    24    32    40    1
    25    41    43   ar
    26    15    19    2
    27    42    43   ar
    28    16    22    2
    29    17    12    1
    30    17    19   ar
    31    17    20   ar
    32    18    19   ar
    33    18    22   ar
    34    18    23    1
    35     9    10    1
    36     9    11    1
    37    10    12    1
    38    11     5    1
    39    33    34    1
    40    33    35    1
    41    34    36    1
    42    35    37    1
    43    37    43    1
    44    20    21   ar
    45    21    22   ar
@<TRIPOS>MOLECULE
*****
 43 45 0 0 0
SMALL
GASTEIGER

@<TRIPOS>ATOM
      1 P          21.2916   72.8644   -4.5669 P.3     1  UNL1        0.2189
      2 O          21.3669   74.2241   -3.6925 O.co2   1  UNL1       -0.4371
      3 O          21.9314   72.9462   -5.9217 O.2     1  UNL1       -0.5170
      4 O          19.7198   72.4809   -4.5541 O.3     1  UNL1       -0.3112
      5 C          19.2750   71.4813   -3.6555 C.3     1  UNL1        0.1811
      6 O          17.3671   71.7368   -5.0951 O.3     1  UNL1       -0.3308
      7 O          15.8911   70.0126   -3.1354 O.3     1  UNL1       -0.3794
      8 O          16.4861   68.2617   -5.1395 O.3     1  UNL1       -0.3779
      9 C          17.2535   69.9398   -3.5561 C.3     1  UNL1        0.1713
     10 C          17.3400   69.3717   -4.9568 C.3     1  UNL1        0.1895
     11 C          17.7598   71.3616   -3.7571 C.3     1  UNL1        0.1764
     12 C          16.9378   70.5650   -5.8065 C.3     1  UNL1        0.2383
     13 H          15.5456   69.1159   -3.0005 H       1  UNL1        0.2105
     14 H          16.7840   67.5286   -4.5776 H       1  UNL1        0.2106
     15 O          15.5275   70.6021   -8.2532 O.2     1  UNL1       -0.2464
     16 O          19.4253   70.5071  -10.7112 O.2     1  UNL1       -0.2670
     17 N          17.5591   70.5507   -7.1006 N.ar    1  UNL1       -0.2551
     18 N          17.4701   70.5537   -9.4751 N.ar    1  UNL1       -0.2743
     19 C          16.7595   70.5713   -8.2677 C.ar    1  UNL1        0.3323
     20 C          18.9444   70.5182   -7.2045 C.ar    1  UNL1        0.0869
     21 C          19.6075   70.5019   -8.3624 C.ar    1  UNL1        0.0795
     22 C          18.8466   70.5208   -9.6290 C.ar    1  UNL1        0.2626
     23 H          16.9349   70.5655  -10.3014 H       1  UNL1        0.1734
     24 O          21.9427   71.7620   -3.5802 O.3     1  UNL1       -0.2703
     25 P          23.3380   71.7605   -2.7637 P.3     1  UNL1        0.2208
     26 O          23.9460   73.2296   -3.0676 O.co2   1  UNL1       -0.4371
     27 O          24.2563   70.6262   -3.1159 O.2     1  UNL1       -0.5170
     28 O          22.9037   71.8128   -1.2109 O.3     1  UNL1       -0.2858
     29 O          22.5952   73.8442   -0.0330 O.3     1  UNL1       -0.3226
     30 O          23.2432   71.1737    3.0519 O.3     1  UNL1       -0.3794
     31 O          24.8531   71.0433    0.6176 O.3     1  UNL1       -0.3775
     32 O          20.5576   72.1381    2.4966 O.3     1  UNL1       -0.3792
     33 C          22.7878   71.5934    1.7656 C.3     1  UNL1        0.1718
     34 C          23.9713   72.1102    0.9472 C.3     1  UNL1        0.1968
     35 C          21.7554   72.7046    1.9688 C.3     1  UNL1        0.1723
     36 C          23.4940   72.7786   -0.3429 C.3     1  UNL1        0.2706
     37 C          21.4254   73.4057    0.6542 C.3     1  UNL1        0.1830
     38 H          23.9004   70.4677    2.9479 H       1  UNL1        0.2105
     39 H          25.1596   70.6145    1.4316 H       1  UNL1        0.2106
     40 H          20.7538   71.6887    3.3335 H       1  UNL1        0.2106
     41 O          20.0716   75.1057   -0.2281 O.co2   1  UNL1       -0.5466
     42 O          20.6332   75.2620    1.9763 O.co2   1  UNL1       -0.5466
     43 C          20.6854   74.6794    0.9035 C.2     1  UNL1        0.0799
@<TRIPOS>UNITY_ATOM_ATTR
2 1
charge -1
26 1
charge -1
41 1
charge -1
@<TRIPOS>BOND
     1     1     4    1
     2     1    24    1
     3     1     2    1
     4     1     3    2
     5    25    28    1
     6    25    24    1
     7    25    26    1
     8    25    27    2
     9     6    11    1
    10     6    12    1
    11    29    36    1
    12    29    37    1
    13     7     9    1
    14     7    13    1
    15     8    10    1
    16     8    14    1
    17     4     5    1
    18    28    36    1
    19    30    33    1
    20    30    38    1
    21    31    34    1
    22    31    39    1
    23    32    35    1
    24    32    40    1
    25    41    43   ar
    26    15    19    2
    27    42    43   ar
    28    16    22    2
    29    17    12    1
    30    17    19   ar
    31    17    20   ar
    32    18    19   ar
    33    18    22   ar
    34    18    23    1
    35     9    10    1
    36     9    11    1
    37    10    12    1
    38    11     5    1
    39    33    34    1
    40    33    35    1
    41    34    36    1
    42    35    37    1
    43    37    43    1
    44    20    21   ar
    45    21    22   ar
@<TRIPOS>MOLECULE
*****
 43 45 0 0 0
SMALL
GASTEIGER

@<TRIPOS>ATOM
      1 P          22.0500   74.4401   -5.5665 P.3     1  UNL1        0.2189
      2 O          20.9975   75.6679   -5.5041 O.co2   1  UNL1       -0.4371
      3 O          23.1603   74.6075   -6.5620 O.2     1  UNL1       -0.5170
      4 O          21.1141   73.1361   -5.7703 O.3     1  UNL1       -0.3112
      5 C          20.7388   72.7723   -7.0861 C.3     1  UNL1        0.1811
      6 O          19.8873   70.8075   -5.9940 O.3     1  UNL1       -0.3308
      7 O          20.1729   69.4367   -8.6456 O.3     1  UNL1       -0.3794
      8 O          17.5040   69.9869   -8.5436 O.3     1  UNL1       -0.3779
      9 C          19.7940   70.7835   -8.3608 C.3     1  UNL1        0.1713
     10 C          18.3799   70.8274   -7.8218 C.3     1  UNL1        0.1895
     11 C          20.6063   71.2567   -7.1631 C.3     1  UNL1        0.1764
     12 C          18.5755   70.3726   -6.3855 C.3     1  UNL1        0.2383
     13 H          19.6669   69.1124   -9.4075 H       1  UNL1        0.2105
     14 H          17.4123   70.3186   -9.4511 H       1  UNL1        0.2106
     15 O          16.6498   68.8837   -4.9534 O.2     1  UNL1       -0.2464
     16 O          14.9133   72.6744   -2.9890 O.2     1  UNL1       -0.2670
     17 N          17.6080   70.9451   -5.4928 N.ar    1  UNL1       -0.2551
     18 N          15.7861   70.7732   -3.9771 N.ar    1  UNL1       -0.2743
     19 C          16.6845   70.1086   -4.8223 C.ar    1  UNL1        0.3323
     20 C          17.5813   72.3192   -5.2876 C.ar    1  UNL1        0.0869
     21 C          16.7191   72.9381   -4.4788 C.ar    1  UNL1        0.0795
     22 C          15.7203   72.1369   -3.7412 C.ar    1  UNL1        0.2626
     23 H          15.1321   70.2120   -3.5010 H       1  UNL1        0.1734
     24 O          22.5371   74.3014   -4.0315 O.3     1  UNL1       -0.2703
     25 P          23.8558   73.6169   -3.3941 P.3     1  UNL1        0.2208
     26 O          24.9260   74.8310   -3.3660 O.co2   1  UNL1       -0.4371
     27 O          24.3281   72.3929   -4.1240 O.2     1  UNL1       -0.5170
     28 O          23.4802   73.3692   -1.8449 O.3     1  UNL1       -0.2858
     29 O          21.6172   72.6878   -0.5510 O.3     1  UNL1       -0.3226
     30 O          22.8945   76.0324    1.5107 O.3     1  UNL1       -0.3794
     31 O          22.8135   76.0342   -1.4096 O.3     1  UNL1       -0.3775
     32 O          23.4460   73.3759    2.5545 O.3     1  UNL1       -0.3792
     33 C          23.0414   74.8641    0.7035 C.3     1  UNL1        0.1718
     34 C          22.2359   75.0281   -0.5856 C.3     1  UNL1        0.1968
     35 C          22.5249   73.6673    1.5052 C.3     1  UNL1        0.1723
     36 C          22.1812   73.7149   -1.3674 C.3     1  UNL1        0.2706
     37 C          22.3794   72.4287    0.6259 C.3     1  UNL1        0.1830
     38 H          23.2163   76.8061    1.0217 H       1  UNL1        0.2105
     39 H          22.8516   76.8702   -0.9197 H       1  UNL1        0.2106
     40 H          23.5478   74.1562    3.1215 H       1  UNL1        0.2106
     41 O          20.7905   71.9280    2.2770 O.co2   1  UNL1       -0.5466
     42 O          21.6170   70.1822    1.0655 O.co2   1  UNL1       -0.5466
     43 C          21.5773   71.3766    1.3201 C.2     1  UNL1        0.0799
@<TRIPOS>UNITY_ATOM_ATTR
2 1
charge -1
26 1
charge -1
41 1
charge -1
@<TRIPOS>BOND
     1     1     4    1
     2     1    24    1
     3     1     2    1
     4     1     3    2
     5    25    28    1
     6    25    24    1
     7    25    26    1
     8    25    27    2
     9     6    11    1
    10     6    12    1
    11    29    36    1
    12    29    37    1
    13     7     9    1
    14     7    13    1
    15     8    10    1
    16     8    14    1
    17     4     5    1
    18    28    36    1
    19    30    33    1
    20    30    38    1
    21    31    34    1
    22    31    39    1
    23    32    35    1
    24    32    40    1
    25    41    43   ar
    26    15    19    2
    27    42    43   ar
    28    16    22    2
    29    17    12    1
    30    17    19   ar
    31    17    20   ar
    32    18    19   ar
    33    18    22   ar
    34    18    23    1
    35     9    10    1
    36     9    11    1
    37    10    12    1
    38    11     5    1
    39    33    34    1
    40    33    35    1
    41    34    36    1
    42    35    37    1
    43    37    43    1
    44    20    21   ar
    45    21    22   ar
@<TRIPOS>MOLECULE
*****
 43 45 0 0 0
SMALL
GASTEIGER

@<TRIPOS>ATOM
      1 P          23.6679   73.4294   -3.8099 P.3     1  UNL1        0.2189
      2 O          24.7738   74.5488   -4.1880 O.co2   1  UNL1       -0.4371
      3 O          24.1951   72.0285   -3.7039 O.2     1  UNL1       -0.5170
      4 O          22.4950   73.6581   -4.9007 O.3     1  UNL1       -0.3112
      5 C          21.3725   72.7955   -4.8774 C.3     1  UNL1        0.1811
      6 O          20.6912   70.7030   -5.8445 O.3     1  UNL1       -0.3308
      7 O          21.1297   72.0050   -8.5098 O.3     1  UNL1       -0.3794
      8 O          18.4208   72.1320   -8.2231 O.3     1  UNL1       -0.3779
      9 C          20.6268   72.5711   -7.2994 C.3     1  UNL1        0.1713
     10 C          19.2086   72.1027   -7.0513 C.3     1  UNL1        0.1895
     11 C          21.3793   71.9385   -6.1368 C.3     1  UNL1        0.1764
     12 C          19.4288   70.6929   -6.5298 C.3     1  UNL1        0.2383
     13 H          20.6638   72.3939   -9.2671 H       1  UNL1        0.2105
     14 H          18.3095   73.0509   -8.5149 H       1  UNL1        0.2106
     15 O          16.8348   69.8824   -7.2984 O.2     1  UNL1       -0.2464
     16 O          15.5758   69.1343   -2.9281 O.2     1  UNL1       -0.2670
     17 N          18.4033   70.2812   -5.6134 N.ar    1  UNL1       -0.2551
     18 N          16.2099   69.5115   -5.1209 N.ar    1  UNL1       -0.2743
     19 C          17.1337   69.8932   -6.1027 C.ar    1  UNL1        0.3323
     20 C          18.6600   70.2630   -4.2478 C.ar    1  UNL1        0.0869
     21 C          17.7694   69.8966   -3.3241 C.ar    1  UNL1        0.0795
     22 C          16.4184   69.4777   -3.7516 C.ar    1  UNL1        0.2626
     23 H          15.3182   69.2392   -5.4373 H       1  UNL1        0.1734
     24 O          23.0162   74.0084   -2.4487 O.3     1  UNL1       -0.2703
     25 P          23.5738   74.0321   -0.9314 P.3     1  UNL1        0.2208
     26 O          24.9307   74.9068   -1.0496 O.co2   1  UNL1       -0.4371
     27 O          23.7654   72.6723   -0.3245 O.2     1  UNL1       -0.5170
     28 O          22.5447   74.9830   -0.1320 O.3     1  UNL1       -0.2858
     29 O          20.2982   74.2344   -0.1788 O.3     1  UNL1       -0.3226
     30 O          22.3324   70.7373    0.6579 O.3     1  UNL1       -0.3794
     31 O          23.0870   73.2384    1.9653 O.3     1  UNL1       -0.3775
     32 O          21.2806   71.2108   -2.0105 O.3     1  UNL1       -0.3792
     33 C          22.1458   72.0307    0.0834 C.3     1  UNL1        0.1718
     34 C          21.9058   73.0541    1.1936 C.3     1  UNL1        0.1968
     35 C          20.9344   71.9636   -0.8494 C.3     1  UNL1        0.1723
     36 C          21.4755   74.4015    0.6121 C.3     1  UNL1        0.2706
     37 C          20.4895   73.3564   -1.2859 C.3     1  UNL1        0.1830
     38 H          23.0971   70.7557    1.2547 H       1  UNL1        0.2105
     39 H          23.3659   72.3873    2.3371 H       1  UNL1        0.2106
     40 H          21.5658   70.3221   -1.7465 H       1  UNL1        0.2106
     41 O          18.3520   72.3907   -1.2931 O.co2   1  UNL1       -0.5466
     42 O          18.7725   73.9979   -2.8549 O.co2   1  UNL1       -0.5466
     43 C          19.1345   73.3080   -1.9136 C.2     1  UNL1        0.0799
@<TRIPOS>UNITY_ATOM_ATTR
2 1
charge -1
26 1
charge -1
41 1
charge -1
@<TRIPOS>BOND
     1     1     4    1
     2     1    24    1
     3     1     2    1
     4     1     3    2
     5    25    28    1
     6    25    24    1
     7    25    26    1
     8    25    27    2
     9     6    11    1
    10     6    12    1
    11    29    36    1
    12    29    37    1
    13     7     9    1
    14     7    13    1
    15     8    10    1
    16     8    14    1
    17     4     5    1
    18    28    36    1
    19    30    33    1
    20    30    38    1
    21    31    34    1
    22    31    39    1
    23    32    35    1
    24    32    40    1
    25    41    43   ar
    26    15    19    2
    27    42    43   ar
    28    16    22    2
    29    17    12    1
    30    17    19   ar
    31    17    20   ar
    32    18    19   ar
    33    18    22   ar
    34    18    23    1
    35     9    10    1
    36     9    11    1
    37    10    12    1
    38    11     5    1
    39    33    34    1
    40    33    35    1
    41    34    36    1
    42    35    37    1
    43    37    43    1
    44    20    21   ar
    45    21    22   ar
@<TRIPOS>MOLECULE
*****
 43 45 0 0 0
SMALL
GASTEIGER

@<TRIPOS>ATOM
      1 P          21.8615   72.4506   -5.6595 P.3     1  UNL1        0.2189
      2 O          21.2189   73.8756   -5.2409 O.co2   1  UNL1       -0.4371
      3 O          23.0725   72.5362   -6.5414 O.2     1  UNL1       -0.5170
      4 O          20.6097   71.6222   -6.2633 O.3     1  UNL1       -0.3112
      5 C          20.1103   71.9851   -7.5375 C.3     1  UNL1        0.1811
      6 O          18.8915   69.9535   -7.1313 O.3     1  UNL1       -0.3308
      7 O          18.1363   70.0460  -10.0318 O.3     1  UNL1       -0.3794
      8 O          15.8952   70.9952   -8.8021 O.3     1  UNL1       -0.3779
      9 C          18.3042   71.1208   -9.1070 C.3     1  UNL1        0.1713
     10 C          17.1339   71.1746   -8.1480 C.3     1  UNL1        0.1895
     11 C          19.4595   70.7671   -8.1805 C.3     1  UNL1        0.1764
     12 C          17.4589   70.0413   -7.1899 C.3     1  UNL1        0.2383
     13 H          17.4034   70.2491  -10.6345 H       1  UNL1        0.2105
     14 H          15.7342   71.7425   -9.4001 H       1  UNL1        0.2106
     15 O          16.3311   68.0508   -5.5339 O.2     1  UNL1       -0.2464
     16 O          15.5431   71.0651   -2.1373 O.2     1  UNL1       -0.2670
     17 N          16.9512   70.2784   -5.8683 N.ar    1  UNL1       -0.2551
     18 N          15.9388   69.5542   -3.8442 N.ar    1  UNL1       -0.2743
     19 C          16.4048   69.2092   -5.1197 C.ar    1  UNL1        0.3323
     20 C          16.9988   71.5569   -5.3260 C.ar    1  UNL1        0.0869
     21 C          16.5508   71.8703   -4.1087 C.ar    1  UNL1        0.0795
     22 C          15.9640   70.8111   -3.2618 C.ar    1  UNL1        0.2626
     23 H          15.5521   68.8268   -3.3050 H       1  UNL1        0.1734
     24 O          22.1168   71.7346   -4.2329 O.3     1  UNL1       -0.2703
     25 P          23.2968   71.9272   -3.1447 P.3     1  UNL1        0.2208
     26 O          23.9711   73.3344   -3.5755 O.co2   1  UNL1       -0.4371
     27 O          24.2593   70.7775   -3.0700 O.2     1  UNL1       -0.5170
     28 O          22.5301   72.2494   -1.7623 O.3     1  UNL1       -0.2858
     29 O          23.2545   70.8304   -0.0099 O.3     1  UNL1       -0.3226
     30 O          20.1618   72.8878    1.7984 O.3     1  UNL1       -0.3794
     31 O          19.8921   71.9199   -0.9448 O.3     1  UNL1       -0.3775
     32 O          22.9211   73.5599    2.4193 O.3     1  UNL1       -0.3792
     33 C          21.2568   72.7061    0.9006 C.3     1  UNL1        0.1718
     34 C          20.9460   71.5579   -0.0599 C.3     1  UNL1        0.1968
     35 C          22.5008   72.3832    1.7314 C.3     1  UNL1        0.1723
     36 C          22.1799   71.1831   -0.8819 C.3     1  UNL1        0.2706
     37 C          23.6481   71.8971    0.8505 C.3     1  UNL1        0.1830
     38 H          19.3598   73.0941    1.2928 H       1  UNL1        0.2105
     39 H          19.1060   72.1592   -0.4299 H       1  UNL1        0.2106
     40 H          22.1998   73.8797    2.9834 H       1  UNL1        0.2106
     41 O          24.6761   69.9265    1.6000 O.co2   1  UNL1       -0.5466
     42 O          25.5490   71.9000    2.3365 O.co2   1  UNL1       -0.5466
     43 C          24.7276   71.2793    1.6785 C.2     1  UNL1        0.0799
@<TRIPOS>UNITY_ATOM_ATTR
2 1
charge -1
26 1
charge -1
41 1
charge -1
@<TRIPOS>BOND
     1     1     4    1
     2     1    24    1
     3     1     2    1
     4     1     3    2
     5    25    28    1
     6    25    24    1
     7    25    26    1
     8    25    27    2
     9     6    11    1
    10     6    12    1
    11    29    36    1
    12    29    37    1
    13     7     9    1
    14     7    13    1
    15     8    10    1
    16     8    14    1
    17     4     5    1
    18    28    36    1
    19    30    33    1
    20    30    38    1
    21    31    34    1
    22    31    39    1
    23    32    35    1
    24    32    40    1
    25    41    43   ar
    26    15    19    2
    27    42    43   ar
    28    16    22    2
    29    17    12    1
    30    17    19   ar
    31    17    20   ar
    32    18    19   ar
    33    18    22   ar
    34    18    23    1
    35     9    10    1
    36     9    11    1
    37    10    12    1
    38    11     5    1
    39    33    34    1
    40    33    35    1
    41    34    36    1
    42    35    37    1
    43    37    43    1
    44    20    21   ar
    45    21    22   ar
@<TRIPOS>MOLECULE
*****
 43 45 0 0 0
SMALL
GASTEIGER

@<TRIPOS>ATOM
      1 P          23.4338   72.2857   -3.5182 P.3     1  UNL1        0.2189
      2 O          24.0640   70.8282   -3.2062 O.co2   1  UNL1       -0.4371
      3 O          24.4295   73.3332   -3.9221 O.2     1  UNL1       -0.5170
      4 O          22.5575   72.6204   -2.1999 O.3     1  UNL1       -0.3112
      5 C          23.2275   72.7625   -0.9608 C.3     1  UNL1        0.1811
      6 O          24.2897   71.2692    0.5947 O.3     1  UNL1       -0.3308
      7 O          21.5492   70.1768    1.1311 O.3     1  UNL1       -0.3794
      8 O          21.9630   71.8225    3.2657 O.3     1  UNL1       -0.3779
      9 C          21.9484   71.5192    0.8533 C.3     1  UNL1        0.1713
     10 C          22.6351   72.1222    2.0604 C.3     1  UNL1        0.1895
     11 C          23.0788   71.4717   -0.1657 C.3     1  UNL1        0.1764
     12 C          24.0145   71.4900    1.9871 C.3     1  UNL1        0.2383
     13 H          20.8276   70.1815    1.7799 H       1  UNL1        0.2105
     14 H          21.0905   72.2477    3.2638 H       1  UNL1        0.2106
     15 O          26.6929   70.6958    2.4019 O.2     1  UNL1       -0.2464
     16 O          27.8452   74.8227    4.1006 O.2     1  UNL1       -0.2670
     17 N          25.0353   72.3368    2.5363 N.ar    1  UNL1       -0.2551
     18 N          27.2640   72.7517    3.2485 N.ar    1  UNL1       -0.2743
     19 C          26.3497   71.8404    2.7037 C.ar    1  UNL1        0.3323
     20 C          24.7312   73.6428    2.9007 C.ar    1  UNL1        0.0869
     21 C          25.6134   74.4997    3.4187 C.ar    1  UNL1        0.0795
     22 C          27.0086   74.0598    3.6269 C.ar    1  UNL1        0.2626
     23 H          28.1851   72.4282    3.3764 H       1  UNL1        0.1734
     24 O          22.3070   71.9631   -4.6313 O.3     1  UNL1       -0.2703
     25 P          21.5588   72.9247   -5.6940 P.3     1  UNL1        0.2208
     26 O          22.4224   72.7222   -7.0480 O.co2   1  UNL1       -0.4371
     27 O          21.4320   74.3530   -5.2491 O.2     1  UNL1       -0.5170
     28 O          20.1543   72.1895   -5.9931 O.3     1  UNL1       -0.2858
     29 O          19.4615   70.0022   -5.4057 O.3     1  UNL1       -0.3226
     30 O          17.3894   70.6236   -8.9254 O.3     1  UNL1       -0.3794
     31 O          20.1757   71.4663   -8.6787 O.3     1  UNL1       -0.3775
     32 O          16.0068   70.7718   -6.3725 O.3     1  UNL1       -0.3792
     33 C          18.0085   70.9968   -7.6944 C.3     1  UNL1        0.1718
     34 C          19.4948   70.6412   -7.7406 C.3     1  UNL1        0.1968
     35 C          17.3134   70.2332   -6.5649 C.3     1  UNL1        0.1723
     36 C          20.1413   70.8125   -6.3653 C.3     1  UNL1        0.2706
     37 C          18.0871   70.3503   -5.2548 C.3     1  UNL1        0.1830
     38 H          17.8149   71.0965   -9.6579 H       1  UNL1        0.2105
     39 H          19.7705   71.3629   -9.5537 H       1  UNL1        0.2106
     40 H          15.5039   70.7035   -7.1992 H       1  UNL1        0.2106
     41 O          18.6140   68.9155   -3.4758 O.co2   1  UNL1       -0.5466
     42 O          16.4375   68.9773   -4.1525 O.co2   1  UNL1       -0.5466
     43 C          17.5957   69.3522   -4.2576 C.2     1  UNL1        0.0799
@<TRIPOS>UNITY_ATOM_ATTR
2 1
charge -1
26 1
charge -1
41 1
charge -1
@<TRIPOS>BOND
     1     1     4    1
     2     1    24    1
     3     1     2    1
     4     1     3    2
     5    25    28    1
     6    25    24    1
     7    25    26    1
     8    25    27    2
     9     6    11    1
    10     6    12    1
    11    29    36    1
    12    29    37    1
    13     7     9    1
    14     7    13    1
    15     8    10    1
    16     8    14    1
    17     4     5    1
    18    28    36    1
    19    30    33    1
    20    30    38    1
    21    31    34    1
    22    31    39    1
    23    32    35    1
    24    32    40    1
    25    41    43   ar
    26    15    19    2
    27    42    43   ar
    28    16    22    2
    29    17    12    1
    30    17    19   ar
    31    17    20   ar
    32    18    19   ar
    33    18    22   ar
    34    18    23    1
    35     9    10    1
    36     9    11    1
    37    10    12    1
    38    11     5    1
    39    33    34    1
    40    33    35    1
    41    34    36    1
    42    35    37    1
    43    37    43    1
    44    20    21   ar
    45    21    22   ar
@<TRIPOS>MOLECULE
*****
 43 45 0 0 0
SMALL
GASTEIGER

@<TRIPOS>ATOM
      1 P          22.8272   71.3156   -2.4898 P.3     1  UNL1        0.2189
      2 O          22.5109   72.8959   -2.3433 O.co2   1  UNL1       -0.4371
      3 O          24.1166   70.9894   -3.1847 O.2     1  UNL1       -0.5170
      4 O          21.4895   70.7132   -3.1720 O.3     1  UNL1       -0.3112
      5 C          20.8175   71.4915   -4.1453 C.3     1  UNL1        0.1811
      6 O          20.5518   70.9122   -6.4629 O.3     1  UNL1       -0.3308
      7 O          23.1681   72.3046   -6.9187 O.3     1  UNL1       -0.3794
      8 O          21.3517   74.1663   -7.7379 O.3     1  UNL1       -0.3779
      9 C          22.1155   72.6334   -6.0119 C.3     1  UNL1        0.1713
     10 C          20.9438   73.2295   -6.7629 C.3     1  UNL1        0.1895
     11 C          21.5268   71.3322   -5.4840 C.3     1  UNL1        0.1764
     12 C          20.2984   71.9960   -7.3710 C.3     1  UNL1        0.2383
     13 H          23.5598   73.1203   -7.2693 H       1  UNL1        0.2105
     14 H          21.7559   74.9327   -7.3007 H       1  UNL1        0.2106
     15 O          18.7579   70.5858   -9.2722 O.2     1  UNL1       -0.2464
     16 O          14.8645   72.6464   -7.9161 O.2     1  UNL1       -0.2670
     17 N          18.8801   72.1447   -7.5363 N.ar    1  UNL1       -0.2551
     18 N          16.8204   71.6142   -8.5957 N.ar    1  UNL1       -0.2743
     19 C          18.2013   71.3891   -8.5213 C.ar    1  UNL1        0.3323
     20 C          18.1765   73.0290   -6.7276 C.ar    1  UNL1        0.0869
     21 C          16.8603   73.2327   -6.8102 C.ar    1  UNL1        0.0795
     22 C          16.0766   72.4833   -7.8140 C.ar    1  UNL1        0.2626
     23 H          16.3265   71.1010   -9.2754 H       1  UNL1        0.1734
     24 O          22.7297   70.7833   -0.9667 O.3     1  UNL1       -0.2703
     25 P          22.1234   71.4751    0.3627 P.3     1  UNL1        0.2208
     26 O          21.5968   70.2132    1.2291 O.co2   1  UNL1       -0.4371
     27 O          21.0785   72.5186    0.0920 O.2     1  UNL1       -0.5170
     28 O          23.4132   72.0126    1.1690 O.3     1  UNL1       -0.2858
     29 O          25.0323   71.3237    2.7542 O.3     1  UNL1       -0.3226
     30 O          23.5404   74.7519    4.5119 O.3     1  UNL1       -0.3794
     31 O          21.7402   72.8407    3.2309 O.3     1  UNL1       -0.3775
     32 O          26.1426   74.7901    3.2164 O.3     1  UNL1       -0.3792
     33 C          23.9143   73.8989    3.4300 C.3     1  UNL1        0.1718
     34 C          23.1152   72.5976    3.5045 C.3     1  UNL1        0.1968
     35 C          25.4125   73.6112    3.5505 C.3     1  UNL1        0.1723
     36 C          23.6480   71.5704    2.5046 C.3     1  UNL1        0.2706
     37 C          25.8417   72.4888    2.6101 C.3     1  UNL1        0.1830
     38 H          22.5920   74.9484    4.4561 H       1  UNL1        0.2105
     39 H          21.3957   73.4919    3.8615 H       1  UNL1        0.2106
     40 H          25.8786   75.5124    3.8076 H       1  UNL1        0.2106
     41 O          27.7639   72.7715    3.9240 O.co2   1  UNL1       -0.5466
     42 O          27.7527   71.0236    2.4599 O.co2   1  UNL1       -0.5466
     43 C          27.2069   71.9945    2.9623 C.2     1  UNL1        0.0799
@<TRIPOS>UNITY_ATOM_ATTR
2 1
charge -1
26 1
charge -1
41 1
charge -1
@<TRIPOS>BOND
     1     1     4    1
     2     1    24    1
     3     1     2    1
     4     1     3    2
     5    25    28    1
     6    25    24    1
     7    25    26    1
     8    25    27    2
     9     6    11    1
    10     6    12    1
    11    29    36    1
    12    29    37    1
    13     7     9    1
    14     7    13    1
    15     8    10    1
    16     8    14    1
    17     4     5    1
    18    28    36    1
    19    30    33    1
    20    30    38    1
    21    31    34    1
    22    31    39    1
    23    32    35    1
    24    32    40    1
    25    41    43   ar
    26    15    19    2
    27    42    43   ar
    28    16    22    2
    29    17    12    1
    30    17    19   ar
    31    17    20   ar
    32    18    19   ar
    33    18    22   ar
    34    18    23    1
    35     9    10    1
    36     9    11    1
    37    10    12    1
    38    11     5    1
    39    33    34    1
    40    33    35    1
    41    34    36    1
    42    35    37    1
    43    37    43    1
    44    20    21   ar
    45    21    22   ar
