@<TRIPOS>MOLECULE
UD1
 46 48 0 0 0
SMALL
GASTEIGER

@<TRIPOS>ATOM
      1 P          20.6278   71.1511   -3.1824 P.3     1  UNL1        0.2189
      2 O          20.2748   72.5509   -2.8586 O.2     1  UNL1       -0.5170
      3 O          21.1120   71.0606   -4.7154 O.3     1  UNL1       -0.4371
      4 O          19.3380   70.2105   -2.9717 O.3     1  UNL1       -0.3112
      5 C          18.2722   71.0595   -2.5432 C.3     1  UNL1        0.1811
      6 C          16.7971   70.5815   -5.7871 C.3     1  UNL1        0.2383
      7 C          16.8351   69.1631   -5.1652 C.3     1  UNL1        0.1895
      8 O          15.7505   68.3663   -5.6427 O.3     1  UNL1       -0.3779
      9 C          16.6751   69.4663   -3.6527 C.3     1  UNL1        0.1713
     10 C          17.1008   70.9412   -3.5195 C.3     1  UNL1        0.1764
     11 O          17.5041   71.3915   -4.8240 O.3     1  UNL1       -0.3308
     12 O          15.3151   69.2929   -3.2489 O.3     1  UNL1       -0.3794
     13 H          15.8319   67.5001   -5.2201 H       1  UNL1        0.2106
     14 H          15.0912   68.3669   -3.4118 H       1  UNL1        0.2105
     15 N          17.4826   70.6004   -7.0799 N.ar    1  UNL1       -0.2551
     16 C          16.7670   70.5160   -8.2148 C.ar    1  UNL1        0.3323
     17 N          17.3707   70.5350   -9.4179 N.ar    1  UNL1       -0.2743
     18 C          18.7129   70.6303   -9.5032 C.ar    1  UNL1        0.2626
     19 C          19.4789   70.7138   -8.3161 C.ar    1  UNL1        0.0795
     20 C          18.8473   70.6980   -7.1227 C.ar    1  UNL1        0.0869
     21 O          15.5556   70.4296   -8.1543 O.2     1  UNL1       -0.2464
     22 O          19.2601   70.6427  -10.5903 O.2     1  UNL1       -0.2670
     23 H          16.8385   70.4779  -10.2264 H       1  UNL1        0.1734
     24 O          21.8146   70.6590   -2.2139 O.3     1  UNL1       -0.2703
     25 P          23.0534   71.6581   -2.4519 P.3     1  UNL1        0.2208
     26 O          22.6847   72.6672   -3.4691 O.2     1  UNL1       -0.5170
     27 O          24.3284   70.8201   -2.9660 O.3     1  UNL1       -0.4371
     28 O          23.4208   72.3981   -1.0707 O.3     1  UNL1       -0.2865
     29 C          22.6404   71.7773   -0.0475 C.3     1  UNL1        0.2611
     30 C          21.9224   72.8564    0.7648 C.3     1  UNL1        0.1582
     31 C          22.9642   73.7998    1.3763 C.3     1  UNL1        0.1625
     32 C          23.9827   72.9642    2.1589 C.3     1  UNL1        0.1686
     33 C          24.5477   71.8787    1.2403 C.3     1  UNL1        0.1760
     34 O          22.3179   74.7208    2.2569 O.3     1  UNL1       -0.3801
     35 O          25.0432   73.8066    2.6141 O.3     1  UNL1       -0.3794
     36 O          23.4949   71.0189    0.8058 O.3     1  UNL1       -0.3263
     37 H          23.0084   75.2937    2.6179 H       1  UNL1        0.2105
     38 H          25.6606   73.2414    3.0998 H       1  UNL1        0.2105
     39 C          19.8204   74.0104    0.3359 C.2     1  UNL1        0.2231
     40 C          18.8996   74.7912   -0.5669 C.3     1  UNL1        0.0946
     41 N          21.0278   73.6153   -0.1116 N.am    1  UNL1       -0.2994
     42 O          19.4739   73.7372    1.4652 O.2     1  UNL1       -0.2751
     43 H          21.3052   73.8336   -1.0155 H       1  UNL1        0.1496
     44 C          25.5901   71.0586    2.0031 C.3     1  UNL1        0.1693
     45 O          24.9420   69.9908    2.6972 O.3     1  UNL1       -0.3794
     46 H          25.6323   69.5004    3.1637 H       1  UNL1        0.2105
@<TRIPOS>BOND
     1    29    30    1
     2    29    28    1
     3    29    36    1
     4    30    31    1
     5    30    41    1
     6    31    32    1
     7    31    34    1
     8    32    33    1
     9    32    35    1
    10    33    44    1
    11    33    36    1
    12    44    45    1
    13    39    40    1
    14    39    41   am
    15    39    42    2
    16    41    43    1
    17    28    25    1
    18    34    37    1
    19    35    38    1
    20    45    46    1
    21    15    16   ar
    22    15    20   ar
    23    15     6    1
    24    16    17   ar
    25    16    21    2
    26    17    18   ar
    27    17    23    1
    28    18    19   ar
    29    18    22    2
    30    19    20   ar
    31     6     7    1
    32     6    11    1
    33     7     8    1
    34     7     9    1
    35     8    13    1
    36     9    10    1
    37     9    12    1
    38    10    11    1
    39    10     5    1
    40    12    14    1
    41     5     4    1
    42     4     1    1
    43     1     2    2
    44     1     3    1
    45     1    24    1
    46    24    25    1
    47    25    26    2
    48    25    27    1
@<TRIPOS>MOLECULE
UD1
 46 48 0 0 0
SMALL
GASTEIGER

@<TRIPOS>ATOM
      1 P          20.7187   71.9219   -1.9198 P.3     1  UNL1        0.2189
      2 O          21.6063   73.0294   -2.3374 O.2     1  UNL1       -0.5170
      3 O          21.3634   70.5175   -2.3723 O.3     1  UNL1       -0.4371
      4 O          19.2773   72.0985   -2.6156 O.3     1  UNL1       -0.3112
      5 C          18.5849   70.8597   -2.4535 C.3     1  UNL1        0.1811
      6 C          16.9724   70.5396   -5.6511 C.3     1  UNL1        0.2383
      7 C          16.9617   69.1052   -5.0657 C.3     1  UNL1        0.1895
      8 O          15.8222   68.3754   -5.5218 O.3     1  UNL1       -0.3779
      9 C          16.8713   69.3764   -3.5414 C.3     1  UNL1        0.1713
     10 C          17.3748   70.8247   -3.3882 C.3     1  UNL1        0.1764
     11 O          17.7532   71.2885   -4.6955 O.3     1  UNL1       -0.3308
     12 O          15.5197   69.2595   -3.0917 O.3     1  UNL1       -0.3794
     13 H          15.8752   67.4956   -5.1237 H       1  UNL1        0.2106
     14 H          15.2441   68.3502   -3.2687 H       1  UNL1        0.2105
     15 N          17.6112   70.5585   -6.9675 N.ar    1  UNL1       -0.2551
     16 C          16.8550   70.4804   -8.0763 C.ar    1  UNL1        0.3323
     17 N          17.4153   70.4995   -9.3002 N.ar    1  UNL1       -0.2743
     18 C          18.7540   70.5887   -9.4334 C.ar    1  UNL1        0.2626
     19 C          19.5625   70.6656   -8.2743 C.ar    1  UNL1        0.0795
     20 C          18.9740   70.6498   -7.0591 C.ar    1  UNL1        0.0869
     21 O          15.6461   70.3995   -7.9726 O.2     1  UNL1       -0.2464
     22 O          19.2620   70.6013  -10.5394 O.2     1  UNL1       -0.2670
     23 H          16.8542   70.4470  -10.0893 H       1  UNL1        0.1734
     24 O          20.5484   71.9447   -0.3200 O.3     1  UNL1       -0.2703
     25 P          21.9262   71.3932    0.3020 P.3     1  UNL1        0.2208
     26 O          22.9088   71.1841   -0.7841 O.2     1  UNL1       -0.5170
     27 O          21.6547   69.9964    1.0552 O.3     1  UNL1       -0.4371
     28 O          22.5084   72.4638    1.3534 O.3     1  UNL1       -0.2865
     29 C          22.6218   71.7920    2.6092 C.3     1  UNL1        0.2611
     30 C          22.1214   72.7142    3.7223 C.3     1  UNL1        0.1582
     31 C          22.9545   74.0009    3.7198 C.3     1  UNL1        0.1625
     32 C          24.4377   73.6245    3.8023 C.3     1  UNL1        0.1686
     33 C          24.7641   72.6358    2.6810 C.3     1  UNL1        0.1760
     34 O          22.5977   74.8047    4.8458 O.3     1  UNL1       -0.3801
     35 O          25.2377   74.7990    3.6537 O.3     1  UNL1       -0.3794
     36 O          23.9864   71.4502    2.8422 O.3     1  UNL1       -0.3263
     37 H          23.1441   75.6016    4.8046 H       1  UNL1        0.2105
     38 H          26.1617   74.5171    3.7109 H       1  UNL1        0.2105
     39 C          20.3821   74.1518    2.8044 C.2     1  UNL1        0.2231
     40 C          18.9320   74.4885    2.5672 C.3     1  UNL1        0.0946
     41 N          20.7128   73.0414    3.4913 N.am    1  UNL1       -0.2994
     42 O          21.2515   74.8812    2.3773 O.2     1  UNL1       -0.2751
     43 H          20.0173   72.4577    3.8334 H       1  UNL1        0.1496
     44 C          26.2509   72.2785    2.7347 C.3     1  UNL1        0.1693
     45 O          26.4292   70.9189    2.3324 O.3     1  UNL1       -0.3794
     46 H          27.3771   70.7349    2.3806 H       1  UNL1        0.2105
@<TRIPOS>BOND
     1    29    30    1
     2    29    28    1
     3    29    36    1
     4    30    31    1
     5    30    41    1
     6    31    32    1
     7    31    34    1
     8    32    33    1
     9    32    35    1
    10    33    44    1
    11    33    36    1
    12    44    45    1
    13    39    40    1
    14    39    41   am
    15    39    42    2
    16    41    43    1
    17    28    25    1
    18    34    37    1
    19    35    38    1
    20    45    46    1
    21    15    16   ar
    22    15    20   ar
    23    15     6    1
    24    16    17   ar
    25    16    21    2
    26    17    18   ar
    27    17    23    1
    28    18    19   ar
    29    18    22    2
    30    19    20   ar
    31     6     7    1
    32     6    11    1
    33     7     8    1
    34     7     9    1
    35     8    13    1
    36     9    10    1
    37     9    12    1
    38    10    11    1
    39    10     5    1
    40    12    14    1
    41     5     4    1
    42     4     1    1
    43     1     2    2
    44     1     3    1
    45     1    24    1
    46    24    25    1
    47    25    26    2
    48    25    27    1
@<TRIPOS>MOLECULE
UD1
 46 48 0 0 0
SMALL
GASTEIGER

@<TRIPOS>ATOM
      1 P          20.9896   71.3293   -2.8047 P.3     1  UNL1        0.2189
      2 O          21.6873   70.8750   -1.5817 O.2     1  UNL1       -0.5170
      3 O          20.3134   72.7654   -2.5347 O.3     1  UNL1       -0.4371
      4 O          19.8472   70.2645   -3.1969 O.3     1  UNL1       -0.3112
      5 C          18.6860   70.6049   -2.4379 C.3     1  UNL1        0.1811
      6 C          17.0384   70.4785   -5.6312 C.3     1  UNL1        0.2383
      7 C          16.9658   69.0253   -5.0991 C.3     1  UNL1        0.1895
      8 O          15.7908   68.3659   -5.5722 O.3     1  UNL1       -0.3779
      9 C          16.8985   69.2431   -3.5651 C.3     1  UNL1        0.1713
     10 C          17.4691   70.6601   -3.3628 C.3     1  UNL1        0.1764
     11 O          17.8594   71.1547   -4.6553 O.3     1  UNL1       -0.3308
     12 O          15.5461   69.1714   -3.1084 O.3     1  UNL1       -0.3794
     13 H          15.8061   67.4702   -5.2074 H       1  UNL1        0.2106
     14 H          15.2278   68.2829   -3.3166 H       1  UNL1        0.2105
     15 N          17.6683   70.5174   -6.9515 N.ar    1  UNL1       -0.2551
     16 C          16.9032   70.4765   -8.0562 C.ar    1  UNL1        0.3323
     17 N          17.4552   70.5147   -9.2834 N.ar    1  UNL1       -0.2743
     18 C          18.7942   70.5859   -9.4242 C.ar    1  UNL1        0.2626
     19 C          19.6118   70.6235   -8.2697 C.ar    1  UNL1        0.0795
     20 C          19.0316   70.5892   -7.0509 C.ar    1  UNL1        0.0869
     21 O          15.6940   70.4124   -7.9455 O.2     1  UNL1       -0.2464
     22 O          19.2946   70.6157  -10.5333 O.2     1  UNL1       -0.2670
     23 H          16.8879   70.4892  -10.0693 H       1  UNL1        0.1734
     24 O          22.0466   71.4511   -4.0117 O.3     1  UNL1       -0.2703
     25 P          22.9422   72.7548   -3.7155 P.3     1  UNL1        0.2208
     26 O          24.2570   72.6108   -4.3783 O.2     1  UNL1       -0.5170
     27 O          23.1568   72.9098   -2.1274 O.3     1  UNL1       -0.4371
     28 O          22.1946   74.0616   -4.2846 O.3     1  UNL1       -0.2865
     29 C          22.1499   73.9274   -5.7063 C.3     1  UNL1        0.2611
     30 C          22.6929   75.2037   -6.3514 C.3     1  UNL1        0.1582
     31 C          21.8456   76.3962   -5.8936 C.3     1  UNL1        0.1625
     32 C          20.3727   76.0927   -6.1877 C.3     1  UNL1        0.1686
     33 C          20.0040   74.7505   -5.5522 C.3     1  UNL1        0.1760
     34 O          22.2471   77.5695   -6.6033 O.3     1  UNL1       -0.3801
     35 O          19.5527   77.1251   -5.6370 O.3     1  UNL1       -0.3794
     36 O          20.8023   73.7127   -6.1199 O.3     1  UNL1       -0.3263
     37 H          21.6901   78.2930   -6.2848 H       1  UNL1        0.2105
     38 H          18.6359   76.8945   -5.8439 H       1  UNL1        0.2105
     39 C          24.3703   76.1839   -4.8818 C.2     1  UNL1        0.2231
     40 C          25.8032   76.3915   -4.4622 C.3     1  UNL1        0.0946
     41 N          24.0846   75.4052   -5.9431 N.am    1  UNL1       -0.2994
     42 O          23.4742   76.7186   -4.2643 O.2     1  UNL1       -0.2751
     43 H          24.8016   74.9774   -6.4376 H       1  UNL1        0.1496
     44 C          18.5258   74.4533   -5.8125 C.3     1  UNL1        0.1693
     45 O          18.3745   73.8964   -7.1199 O.3     1  UNL1       -0.3794
     46 H          17.4312   73.7246   -7.2434 H       1  UNL1        0.2105
@<TRIPOS>BOND
     1    29    30    1
     2    29    28    1
     3    29    36    1
     4    30    31    1
     5    30    41    1
     6    31    32    1
     7    31    34    1
     8    32    33    1
     9    32    35    1
    10    33    44    1
    11    33    36    1
    12    44    45    1
    13    39    40    1
    14    39    41   am
    15    39    42    2
    16    41    43    1
    17    28    25    1
    18    34    37    1
    19    35    38    1
    20    45    46    1
    21    15    16   ar
    22    15    20   ar
    23    15     6    1
    24    16    17   ar
    25    16    21    2
    26    17    18   ar
    27    17    23    1
    28    18    19   ar
    29    18    22    2
    30    19    20   ar
    31     6     7    1
    32     6    11    1
    33     7     8    1
    34     7     9    1
    35     8    13    1
    36     9    10    1
    37     9    12    1
    38    10    11    1
    39    10     5    1
    40    12    14    1
    41     5     4    1
    42     4     1    1
    43     1     2    2
    44     1     3    1
    45     1    24    1
    46    24    25    1
    47    25    26    2
    48    25    27    1
@<TRIPOS>MOLECULE
UD1
 46 48 0 0 0
SMALL
GASTEIGER

@<TRIPOS>ATOM
      1 P          20.6623   71.3823   -2.7436 P.3     1  UNL1        0.2189
      2 O          20.8165   71.5143   -1.2782 O.2     1  UNL1       -0.5170
      3 O          20.2489   72.8067   -3.3703 O.3     1  UNL1       -0.4371
      4 O          19.5133   70.3013   -3.0665 O.3     1  UNL1       -0.3112
      5 C          18.3269   70.7495   -2.4094 C.3     1  UNL1        0.1811
      6 C          16.8612   70.5154   -5.6841 C.3     1  UNL1        0.2383
      7 C          16.8232   69.0663   -5.1373 C.3     1  UNL1        0.1895
      8 O          15.7052   68.3506   -5.6636 O.3     1  UNL1       -0.3779
      9 C          16.6638   69.2979   -3.6121 C.3     1  UNL1        0.1713
     10 C          17.1605   70.7408   -3.3986 C.3     1  UNL1        0.1764
     11 O          17.5981   71.2378   -4.6748 O.3     1  UNL1       -0.3308
     12 O          15.2931   69.1717   -3.2275 O.3     1  UNL1       -0.3794
     13 H          15.7396   67.4605   -5.2865 H       1  UNL1        0.2106
     14 H          15.0253   68.2677   -3.4404 H       1  UNL1        0.2105
     15 N          17.5591   70.5675   -6.9692 N.ar    1  UNL1       -0.2551
     16 C          16.8553   70.5021   -8.1128 C.ar    1  UNL1        0.3323
     17 N          17.4706   70.5517   -9.3091 N.ar    1  UNL1       -0.2743
     18 C          18.8128   70.6591   -9.3790 C.ar    1  UNL1        0.2626
     19 C          19.5665   70.7229   -8.1828 C.ar    1  UNL1        0.0795
     20 C          18.9234   70.6764   -6.9964 C.ar    1  UNL1        0.0869
     21 O          15.6441   70.4051   -8.0662 O.2     1  UNL1       -0.2464
     22 O          19.3705   70.6992  -10.4601 O.2     1  UNL1       -0.2670
     23 H          16.9468   70.5080  -10.1240 H       1  UNL1        0.1734
     24 O          22.0537   70.8949   -3.3880 O.3     1  UNL1       -0.2703
     25 P          23.2078   71.8231   -2.7589 P.3     1  UNL1        0.2208
     26 O          24.3533   71.8868   -3.6929 O.2     1  UNL1       -0.5170
     27 O          23.6939   71.1997   -1.3563 O.3     1  UNL1       -0.4371
     28 O          22.6318   73.3060   -2.5144 O.3     1  UNL1       -0.2865
     29 C          23.4925   73.9332   -1.5620 C.3     1  UNL1        0.2611
     30 C          22.7221   75.0367   -0.8348 C.3     1  UNL1        0.1582
     31 C          22.2176   76.0563   -1.8622 C.3     1  UNL1        0.1625
     32 C          23.4066   76.5357   -2.7016 C.3     1  UNL1        0.1686
     33 C          24.1236   75.3190   -3.2905 C.3     1  UNL1        0.1760
     34 O          21.6270   77.1668   -1.1844 O.3     1  UNL1       -0.3801
     35 O          22.9378   77.3742   -3.7593 O.3     1  UNL1       -0.3794
     36 O          24.6172   74.4933   -2.2365 O.3     1  UNL1       -0.3263
     37 H          21.3240   77.7816   -1.8667 H       1  UNL1        0.2105
     38 H          23.7166   77.6523   -4.2619 H       1  UNL1        0.2105
     39 C          20.3369   74.5934   -0.6146 C.2     1  UNL1        0.2231
     40 C          19.1648   73.9919    0.1180 C.3     1  UNL1        0.0946
     41 N          21.5833   74.4522   -0.1238 N.am    1  UNL1       -0.2994
     42 O          20.1580   75.2053   -1.6460 O.2     1  UNL1       -0.2751
     43 H          21.7267   73.9627    0.7017 H       1  UNL1        0.1496
     44 C          25.2938   75.7884   -4.1574 C.3     1  UNL1        0.1693
     45 O          24.8672   75.8949   -5.5171 O.3     1  UNL1       -0.3794
     46 H          25.6323   76.1922   -6.0279 H       1  UNL1        0.2105
@<TRIPOS>BOND
     1    29    30    1
     2    29    28    1
     3    29    36    1
     4    30    31    1
     5    30    41    1
     6    31    32    1
     7    31    34    1
     8    32    33    1
     9    32    35    1
    10    33    44    1
    11    33    36    1
    12    44    45    1
    13    39    40    1
    14    39    41   am
    15    39    42    2
    16    41    43    1
    17    28    25    1
    18    34    37    1
    19    35    38    1
    20    45    46    1
    21    15    16   ar
    22    15    20   ar
    23    15     6    1
    24    16    17   ar
    25    16    21    2
    26    17    18   ar
    27    17    23    1
    28    18    19   ar
    29    18    22    2
    30    19    20   ar
    31     6     7    1
    32     6    11    1
    33     7     8    1
    34     7     9    1
    35     8    13    1
    36     9    10    1
    37     9    12    1
    38    10    11    1
    39    10     5    1
    40    12    14    1
    41     5     4    1
    42     4     1    1
    43     1     2    2
    44     1     3    1
    45     1    24    1
    46    24    25    1
    47    25    26    2
    48    25    27    1
@<TRIPOS>MOLECULE
UD1
 46 48 0 0 0
SMALL
GASTEIGER

@<TRIPOS>ATOM
      1 P          21.0506   70.9479   -3.7633 P.3     1  UNL1        0.2189
      2 O          21.4333   71.6017   -5.0341 O.2     1  UNL1       -0.5170
      3 O          20.5691   69.4402   -4.0591 O.3     1  UNL1       -0.4371
      4 O          19.8470   71.7700   -3.0788 O.3     1  UNL1       -0.3112
      5 C          18.9130   70.8061   -2.5901 C.3     1  UNL1        0.1811
      6 C          17.1329   70.5431   -5.7028 C.3     1  UNL1        0.2383
      7 C          17.0857   69.1139   -5.1067 C.3     1  UNL1        0.1895
      8 O          15.8932   68.4346   -5.5013 O.3     1  UNL1       -0.3779
      9 C          17.0825   69.3970   -3.5819 C.3     1  UNL1        0.1713
     10 C          17.6582   70.8215   -3.4644 C.3     1  UNL1        0.1764
     11 O          17.9928   71.2605   -4.7921 O.3     1  UNL1       -0.3308
     12 O          15.7506   69.3446   -3.0660 O.3     1  UNL1       -0.3794
     13 H          15.9256   67.5554   -5.0996 H       1  UNL1        0.2106
     14 H          15.4257   68.4479   -3.2225 H       1  UNL1        0.2105
     15 N          17.7066   70.5257   -7.0489 N.ar    1  UNL1       -0.2551
     16 C          16.8941   70.4789   -8.1190 C.ar    1  UNL1        0.3323
     17 N          17.3940   70.4659   -9.3688 N.ar    1  UNL1       -0.2743
     18 C          18.7274   70.4905   -9.5676 C.ar    1  UNL1        0.2626
     19 C          19.5944   70.5338   -8.4499 C.ar    1  UNL1        0.0795
     20 C          19.0660   70.5514   -7.2073 C.ar    1  UNL1        0.0869
     21 O          15.6893   70.4564   -7.9559 O.2     1  UNL1       -0.2464
     22 O          19.1806   70.4740  -10.6971 O.2     1  UNL1       -0.2670
     23 H          16.7931   70.4369  -10.1292 H       1  UNL1        0.1734
     24 O          22.3162   70.9231   -2.7702 O.3     1  UNL1       -0.2703
     25 P          23.0612   72.3403   -2.9310 P.3     1  UNL1        0.2208
     26 O          22.0723   73.3788   -3.2948 O.2     1  UNL1       -0.5170
     27 O          24.1760   72.2332   -4.0877 O.3     1  UNL1       -0.4371
     28 O          23.7688   72.7368   -1.5408 O.3     1  UNL1       -0.2865
     29 C          22.9174   73.6877   -0.8988 C.3     1  UNL1        0.2611
     30 C          23.7759   74.7487   -0.2079 C.3     1  UNL1        0.1582
     31 C          24.6912   74.0652    0.8141 C.3     1  UNL1        0.1625
     32 C          23.8292   73.2125    1.7511 C.3     1  UNL1        0.1686
     33 C          22.9688   72.2651    0.9123 C.3     1  UNL1        0.1760
     34 O          25.3893   75.0565    1.5700 O.3     1  UNL1       -0.3801
     35 O          24.6735   72.4525    2.6179 O.3     1  UNL1       -0.3794
     36 O          22.1047   73.0213    0.0650 O.3     1  UNL1       -0.3263
     37 H          25.9520   74.5837    2.1986 H       1  UNL1        0.2105
     38 H          24.0914   71.9310    3.1886 H       1  UNL1        0.2105
     39 C          24.7969   76.7730   -1.0987 C.2     1  UNL1        0.2231
     40 C          25.6341   77.4910   -2.1264 C.3     1  UNL1        0.0946
     41 N          24.5894   75.4465   -1.2057 N.am    1  UNL1       -0.2994
     42 O          24.3094   77.3898   -0.1757 O.2     1  UNL1       -0.2751
     43 H          24.9792   74.9527   -1.9444 H       1  UNL1        0.1496
     44 C          22.1275   71.3861    1.8400 C.3     1  UNL1        0.1693
     45 O          21.5851   70.2920    1.0978 O.3     1  UNL1       -0.3794
     46 H          21.0632   69.7647    1.7177 H       1  UNL1        0.2105
@<TRIPOS>BOND
     1    29    30    1
     2    29    28    1
     3    29    36    1
     4    30    31    1
     5    30    41    1
     6    31    32    1
     7    31    34    1
     8    32    33    1
     9    32    35    1
    10    33    44    1
    11    33    36    1
    12    44    45    1
    13    39    40    1
    14    39    41   am
    15    39    42    2
    16    41    43    1
    17    28    25    1
    18    34    37    1
    19    35    38    1
    20    45    46    1
    21    15    16   ar
    22    15    20   ar
    23    15     6    1
    24    16    17   ar
    25    16    21    2
    26    17    18   ar
    27    17    23    1
    28    18    19   ar
    29    18    22    2
    30    19    20   ar
    31     6     7    1
    32     6    11    1
    33     7     8    1
    34     7     9    1
    35     8    13    1
    36     9    10    1
    37     9    12    1
    38    10    11    1
    39    10     5    1
    40    12    14    1
    41     5     4    1
    42     4     1    1
    43     1     2    2
    44     1     3    1
    45     1    24    1
    46    24    25    1
    47    25    26    2
    48    25    27    1
@<TRIPOS>MOLECULE
UD1
 46 48 0 0 0
SMALL
GASTEIGER

@<TRIPOS>ATOM
      1 P          20.9217   71.0824   -2.2233 P.3     1  UNL1        0.2189
      2 O          20.8399   72.5594   -2.2460 O.2     1  UNL1       -0.5170
      3 O          22.2773   70.6087   -2.9517 O.3     1  UNL1       -0.4371
      4 O          19.6530   70.4632   -2.9978 O.3     1  UNL1       -0.3112
      5 C          18.4851   70.9678   -2.3484 C.3     1  UNL1        0.1811
      6 C          16.9355   70.5684   -5.5681 C.3     1  UNL1        0.2383
      7 C          16.9790   69.1366   -4.9781 C.3     1  UNL1        0.1895
      8 O          15.8794   68.3563   -5.4483 O.3     1  UNL1       -0.3779
      9 C          16.8544   69.4077   -3.4562 C.3     1  UNL1        0.1713
     10 C          17.2916   70.8771   -3.3006 C.3     1  UNL1        0.1764
     11 O          17.6685   71.3535   -4.6038 O.3     1  UNL1       -0.3308
     12 O          15.5027   69.2329   -3.0259 O.3     1  UNL1       -0.3794
     13 H          15.9651   67.4807   -5.0465 H       1  UNL1        0.2106
     14 H          15.2699   68.3119   -3.2038 H       1  UNL1        0.2105
     15 N          17.5922   70.6118   -6.8752 N.ar    1  UNL1       -0.2551
     16 C          16.8586   70.4806   -7.9941 C.ar    1  UNL1        0.3323
     17 N          17.4354   70.5206   -9.2098 N.ar    1  UNL1       -0.2743
     18 C          18.7688   70.6846   -9.3241 C.ar    1  UNL1        0.2626
     19 C          19.5538   70.8180   -8.1541 C.ar    1  UNL1        0.0795
     20 C          18.9488   70.7796   -6.9476 C.ar    1  UNL1        0.0869
     21 O          15.6548   70.3321   -7.9073 O.2     1  UNL1       -0.2464
     22 O          19.2920   70.7161  -10.4226 O.2     1  UNL1       -0.2670
     23 H          16.8903   70.4291  -10.0064 H       1  UNL1        0.1734
     24 O          20.9227   70.5683   -0.6987 O.3     1  UNL1       -0.2703
     25 P          22.2404   71.1767   -0.0038 P.3     1  UNL1        0.2208
     26 O          23.2918   71.3717   -1.0263 O.2     1  UNL1       -0.5170
     27 O          22.7721   70.1582    1.1241 O.3     1  UNL1       -0.4371
     28 O          21.8852   72.5912    0.6770 O.3     1  UNL1       -0.2865
     29 C          20.7111   72.3884    1.4655 C.3     1  UNL1        0.2611
     30 C          19.8302   73.6367    1.3897 C.3     1  UNL1        0.1582
     31 C          20.6249   74.8429    1.9027 C.3     1  UNL1        0.1625
     32 C          21.1706   74.5135    3.2962 C.3     1  UNL1        0.1686
     33 C          21.9532   73.2004    3.2274 C.3     1  UNL1        0.1760
     34 O          19.7682   75.9839    1.9777 O.3     1  UNL1       -0.3801
     35 O          22.0352   75.5645    3.7316 O.3     1  UNL1       -0.3794
     36 O          21.0859   72.1432    2.8192 O.3     1  UNL1       -0.3263
     37 H          20.3078   76.7174    2.3037 H       1  UNL1        0.2105
     38 H          22.3563   75.3167    4.6102 H       1  UNL1        0.2105
     39 C          18.1706   74.2617   -0.2805 C.2     1  UNL1        0.2231
     40 C          17.7569   74.5001   -1.7102 C.3     1  UNL1        0.0946
     41 N          19.4279   73.8690    0.0010 N.am    1  UNL1       -0.2994
     42 O          17.3712   74.4227    0.6169 O.2     1  UNL1       -0.2751
     43 H          20.0678   73.7398   -0.7170 H       1  UNL1        0.1496
     44 C          22.5301   72.8790    4.6076 C.3     1  UNL1        0.1693
     45 O          21.6138   73.3047    5.6182 O.3     1  UNL1       -0.3794
     46 H          22.0146   73.0846    6.4700 H       1  UNL1        0.2105
@<TRIPOS>BOND
     1    29    30    1
     2    29    28    1
     3    29    36    1
     4    30    31    1
     5    30    41    1
     6    31    32    1
     7    31    34    1
     8    32    33    1
     9    32    35    1
    10    33    44    1
    11    33    36    1
    12    44    45    1
    13    39    40    1
    14    39    41   am
    15    39    42    2
    16    41    43    1
    17    28    25    1
    18    34    37    1
    19    35    38    1
    20    45    46    1
    21    15    16   ar
    22    15    20   ar
    23    15     6    1
    24    16    17   ar
    25    16    21    2
    26    17    18   ar
    27    17    23    1
    28    18    19   ar
    29    18    22    2
    30    19    20   ar
    31     6     7    1
    32     6    11    1
    33     7     8    1
    34     7     9    1
    35     8    13    1
    36     9    10    1
    37     9    12    1
    38    10    11    1
    39    10     5    1
    40    12    14    1
    41     5     4    1
    42     4     1    1
    43     1     2    2
    44     1     3    1
    45     1    24    1
    46    24    25    1
    47    25    26    2
    48    25    27    1
@<TRIPOS>MOLECULE
UD1
 46 48 0 0 0
SMALL
GASTEIGER

@<TRIPOS>ATOM
      1 P          20.2486   71.2212   -2.6220 P.3     1  UNL1        0.2189
      2 O          20.7083   70.1408   -3.5222 O.2     1  UNL1       -0.5170
      3 O          19.7552   70.5846   -1.2278 O.3     1  UNL1       -0.4371
      4 O          19.0269   72.0107   -3.3125 O.3     1  UNL1       -0.3112
      5 C          17.8405   71.6299   -2.6139 C.3     1  UNL1        0.1811
      6 C          16.7355   70.4788   -5.8359 C.3     1  UNL1        0.2383
      7 C          17.0739   69.1836   -5.0560 C.3     1  UNL1        0.1895
      8 O          16.2459   68.1003   -5.4806 O.3     1  UNL1       -0.3779
      9 C          16.7486   69.5890   -3.5948 C.3     1  UNL1        0.1713
     10 C          16.7973   71.1290   -3.6139 C.3     1  UNL1        0.1764
     11 O          17.1634   71.5309   -4.9449 O.3     1  UNL1       -0.3308
     12 O          15.4473   69.1276   -3.2254 O.3     1  UNL1       -0.3794
     13 H          16.5061   67.3280   -4.9597 H       1  UNL1        0.2106
     14 H          15.4639   68.1635   -3.2906 H       1  UNL1        0.2105
     15 N          17.4779   70.5356   -7.0957 N.ar    1  UNL1       -0.2551
     16 C          16.8099   70.5644   -8.2620 C.ar    1  UNL1        0.3323
     17 N          17.4667   70.6206   -9.4357 N.ar    1  UNL1       -0.2743
     18 C          18.8147   70.6397   -9.4598 C.ar    1  UNL1        0.2626
     19 C          19.5305   70.6037   -8.2395 C.ar    1  UNL1        0.0795
     20 C          18.8465   70.5529   -7.0764 C.ar    1  UNL1        0.0869
     21 O          15.5941   70.5479   -8.2566 O.2     1  UNL1       -0.2464
     22 O          19.4096   70.6856  -10.5206 O.2     1  UNL1       -0.2670
     23 H          16.9687   70.6456  -10.2673 H       1  UNL1        0.1734
     24 O          21.4608   72.2430   -2.3474 O.3     1  UNL1       -0.2703
     25 P          21.1608   72.9510   -0.9338 P.3     1  UNL1        0.2208
     26 O          21.2524   71.9476    0.1495 O.2     1  UNL1       -0.5170
     27 O          19.6808   73.5846   -0.9536 O.3     1  UNL1       -0.4371
     28 O          22.2391   74.1179   -0.6771 O.3     1  UNL1       -0.2865
     29 C          23.5057   73.4805   -0.5016 C.3     1  UNL1        0.2611
     30 C          24.1463   73.9784    0.7952 C.3     1  UNL1        0.1582
     31 C          24.3123   75.5004    0.7201 C.3     1  UNL1        0.1625
     32 C          25.0785   75.8473   -0.5608 C.3     1  UNL1        0.1686
     33 C          24.3657   75.2108   -1.7558 C.3     1  UNL1        0.1760
     34 O          25.0435   75.9591    1.8586 O.3     1  UNL1       -0.3801
     35 O          25.1167   77.2661   -0.7255 O.3     1  UNL1       -0.3794
     36 O          24.3500   73.7915   -1.6078 O.3     1  UNL1       -0.3263
     37 H          25.1241   76.9189    1.7708 H       1  UNL1        0.2105
     38 H          25.6062   77.4398   -1.5420 H       1  UNL1        0.2105
     39 C          23.6493   72.6511    2.7764 C.2     1  UNL1        0.2231
     40 C          22.7642   72.2966    3.9440 C.3     1  UNL1        0.0946
     41 N          23.2870   73.6340    1.9298 N.am    1  UNL1       -0.2994
     42 O          24.6877   72.0508    2.5986 O.2     1  UNL1       -0.2751
     43 H          22.4560   74.1144    2.0718 H       1  UNL1        0.1496
     44 C          25.1050   75.5783   -3.0440 C.3     1  UNL1        0.1693
     45 O          25.1650   74.4368   -3.9016 O.3     1  UNL1       -0.3794
     46 H          25.6375   74.7106   -4.6993 H       1  UNL1        0.2105
@<TRIPOS>BOND
     1    29    30    1
     2    29    28    1
     3    29    36    1
     4    30    31    1
     5    30    41    1
     6    31    32    1
     7    31    34    1
     8    32    33    1
     9    32    35    1
    10    33    44    1
    11    33    36    1
    12    44    45    1
    13    39    40    1
    14    39    41   am
    15    39    42    2
    16    41    43    1
    17    28    25    1
    18    34    37    1
    19    35    38    1
    20    45    46    1
    21    15    16   ar
    22    15    20   ar
    23    15     6    1
    24    16    17   ar
    25    16    21    2
    26    17    18   ar
    27    17    23    1
    28    18    19   ar
    29    18    22    2
    30    19    20   ar
    31     6     7    1
    32     6    11    1
    33     7     8    1
    34     7     9    1
    35     8    13    1
    36     9    10    1
    37     9    12    1
    38    10    11    1
    39    10     5    1
    40    12    14    1
    41     5     4    1
    42     4     1    1
    43     1     2    2
    44     1     3    1
    45     1    24    1
    46    24    25    1
    47    25    26    2
    48    25    27    1
@<TRIPOS>MOLECULE
UD1
 46 48 0 0 0
SMALL
GASTEIGER

@<TRIPOS>ATOM
      1 P          20.9241   72.4598   -2.3846 P.3     1  UNL1        0.2189
      2 O          21.9590   73.3076   -3.0163 O.2     1  UNL1       -0.5170
      3 O          21.5274   70.9928   -2.1081 O.3     1  UNL1       -0.4371
      4 O          19.6550   72.3404   -3.3685 O.3     1  UNL1       -0.3112
      5 C          18.6365   71.6451   -2.6477 C.3     1  UNL1        0.1811
      6 C          16.9555   70.9502   -5.7491 C.3     1  UNL1        0.2383
      7 C          17.0113   69.5828   -5.0230 C.3     1  UNL1        0.1895
      8 O          15.8875   68.7733   -5.3706 O.3     1  UNL1       -0.3779
      9 C          16.9501   70.0034   -3.5315 C.3     1  UNL1        0.1713
     10 C          17.4050   71.4757   -3.5388 C.3     1  UNL1        0.1764
     11 O          17.7330   71.8173   -4.8963 O.3     1  UNL1       -0.3308
     12 O          15.6155   69.8879   -3.0334 O.3     1  UNL1       -0.3794
     13 H          15.9822   67.9404   -4.8881 H       1  UNL1        0.2106
     14 H          15.3683   68.9567   -3.1104 H       1  UNL1        0.2105
     15 N          17.5595   70.8572   -7.0788 N.ar    1  UNL1       -0.2551
     16 C          16.7741   70.6903   -8.1571 C.ar    1  UNL1        0.3323
     17 N          17.3020   70.6055   -9.3926 N.ar    1  UNL1       -0.2743
     18 C          18.6369   70.6780   -9.5676 C.ar    1  UNL1        0.2626
     19 C          19.4758   70.8476   -8.4405 C.ar    1  UNL1        0.0795
     20 C          18.9195   70.9351   -7.2132 C.ar    1  UNL1        0.0869
     21 O          15.5683   70.6233   -8.0155 O.2     1  UNL1       -0.2464
     22 O          19.1156   70.5966  -10.6837 O.2     1  UNL1       -0.2670
     23 H          16.7202   70.4900  -10.1596 H       1  UNL1        0.1734
     24 O          20.4633   73.1227   -0.9929 O.3     1  UNL1       -0.2703
     25 P          20.7700   72.0432    0.1603 P.3     1  UNL1        0.2208
     26 O          20.2644   70.7173   -0.2583 O.2     1  UNL1       -0.5170
     27 O          20.0383   72.4900    1.5231 O.3     1  UNL1       -0.4371
     28 O          22.3580   71.9579    0.4086 O.3     1  UNL1       -0.2865
     29 C          22.7910   73.2686    0.7769 C.3     1  UNL1        0.2611
     30 C          23.2225   73.2643    2.2444 C.3     1  UNL1        0.1582
     31 C          22.0401   72.8210    3.1133 C.3     1  UNL1        0.1625
     32 C          20.8344   73.7101    2.7908 C.3     1  UNL1        0.1686
     33 C          20.5811   73.6784    1.2821 C.3     1  UNL1        0.1760
     34 O          22.3831   72.9558    4.4937 O.3     1  UNL1       -0.3801
     35 O          19.6823   73.2218    3.4806 O.3     1  UNL1       -0.3794
     36 O          21.7196   74.1912    0.5912 O.3     1  UNL1       -0.3263
     37 H          21.6131   72.6666    5.0025 H       1  UNL1        0.2105
     38 H          18.9483   73.8085    3.2494 H       1  UNL1        0.2105
     39 C          25.5837   72.8059    2.6305 C.2     1  UNL1        0.2231
     40 C          26.7329   71.8479    2.8147 C.3     1  UNL1        0.0946
     41 N          24.3391   72.3340    2.4240 N.am    1  UNL1       -0.2994
     42 O          25.7795   74.0019    2.6674 O.2     1  UNL1       -0.2751
     43 H          24.1822   71.3769    2.3941 H       1  UNL1        0.1496
     44 C          19.3587   74.5378    0.9533 C.3     1  UNL1        0.1693
     45 O          18.2134   73.6975    0.7967 O.3     1  UNL1       -0.3794
     46 H          17.4674   74.2769    0.5907 H       1  UNL1        0.2105
@<TRIPOS>BOND
     1    29    30    1
     2    29    28    1
     3    29    36    1
     4    30    31    1
     5    30    41    1
     6    31    32    1
     7    31    34    1
     8    32    33    1
     9    32    35    1
    10    33    44    1
    11    33    36    1
    12    44    45    1
    13    39    40    1
    14    39    41   am
    15    39    42    2
    16    41    43    1
    17    28    25    1
    18    34    37    1
    19    35    38    1
    20    45    46    1
    21    15    16   ar
    22    15    20   ar
    23    15     6    1
    24    16    17   ar
    25    16    21    2
    26    17    18   ar
    27    17    23    1
    28    18    19   ar
    29    18    22    2
    30    19    20   ar
    31     6     7    1
    32     6    11    1
    33     7     8    1
    34     7     9    1
    35     8    13    1
    36     9    10    1
    37     9    12    1
    38    10    11    1
    39    10     5    1
    40    12    14    1
    41     5     4    1
    42     4     1    1
    43     1     2    2
    44     1     3    1
    45     1    24    1
    46    24    25    1
    47    25    26    2
    48    25    27    1
@<TRIPOS>MOLECULE
UD1
 46 48 0 0 0
SMALL
GASTEIGER

@<TRIPOS>ATOM
      1 P          16.3009   69.7156   -2.7647 P.3     1  UNL1        0.2189
      2 O          16.0116   69.1789   -4.1127 O.2     1  UNL1       -0.5170
      3 O          16.9527   68.5581   -1.8547 O.3     1  UNL1       -0.4371
      4 O          14.9327   70.2244   -2.0852 O.3     1  UNL1       -0.3112
      5 C          14.7873   69.5061   -0.8591 C.3     1  UNL1        0.1811
      6 C          12.0425   68.0088    0.9160 C.3     1  UNL1        0.2383
      7 C          12.0558   69.4826    1.3935 C.3     1  UNL1        0.1895
      8 O          10.7381   69.9264    1.7188 O.3     1  UNL1       -0.3779
      9 C          12.5971   70.2248    0.1440 C.3     1  UNL1        0.1713
     10 C          13.3191   69.1265   -0.6603 C.3     1  UNL1        0.1764
     11 O          13.2274   67.9083    0.0978 O.3     1  UNL1       -0.3308
     12 O          11.5201   70.7819   -0.6126 O.3     1  UNL1       -0.3794
     13 H          10.8156   70.8462    2.0078 H       1  UNL1        0.2106
     14 H          11.0727   71.4159   -0.0365 H       1  UNL1        0.2105
     15 N          12.1223   67.0931    2.0547 N.ar    1  UNL1       -0.2551
     16 C          13.3246   66.7119    2.5201 C.ar    1  UNL1        0.3323
     17 N          13.4281   65.8737    3.5685 N.ar    1  UNL1       -0.2743
     18 C          12.3192   65.3932    4.1662 C.ar    1  UNL1        0.2626
     19 C          11.0471   65.7816    3.6827 C.ar    1  UNL1        0.0795
     20 C          10.9722   66.6277    2.6330 C.ar    1  UNL1        0.0869
     21 O          14.3339   67.1368    1.9916 O.2     1  UNL1       -0.2464
     22 O          12.4115   64.6316    5.1111 O.2     1  UNL1       -0.2670
     23 H          14.3034   65.6130    3.8940 H       1  UNL1        0.1734
     24 O          17.3296   70.9468   -2.8866 O.3     1  UNL1       -0.2703
     25 P          18.7808   70.3135   -3.1733 P.3     1  UNL1        0.2208
     26 O          18.6244   68.9360   -3.6899 O.2     1  UNL1       -0.5170
     27 O          19.6320   70.2800   -1.8071 O.3     1  UNL1       -0.4371
     28 O          19.5535   71.2108   -4.2634 O.3     1  UNL1       -0.2865
     29 C          20.7081   70.4716   -4.6654 C.3     1  UNL1        0.2611
     30 C          21.9431   71.3682   -4.5616 C.3     1  UNL1        0.1582
     31 C          21.7478   72.5963   -5.4577 C.3     1  UNL1        0.1625
     32 C          21.4047   72.1205   -6.8734 C.3     1  UNL1        0.1686
     33 C          20.2081   71.1694   -6.8031 C.3     1  UNL1        0.1760
     34 O          22.9519   73.3649   -5.4860 O.3     1  UNL1       -0.3801
     35 O          21.0749   73.2463   -7.6891 O.3     1  UNL1       -0.3794
     36 O          20.5433   70.0304   -6.0114 O.3     1  UNL1       -0.3263
     37 H          22.7845   74.1255   -6.0593 H       1  UNL1        0.2105
     38 H          20.8653   72.9023   -8.5691 H       1  UNL1        0.2105
     39 C          23.2516   71.4849   -2.5101 C.2     1  UNL1        0.2231
     40 C          23.4345   71.9266   -1.0805 C.3     1  UNL1        0.0946
     41 N          22.1215   71.7975   -3.1730 N.am    1  UNL1       -0.2994
     42 O          24.1217   70.8472   -3.0636 O.2     1  UNL1       -0.2751
     43 H          21.4249   72.3076   -2.7301 H       1  UNL1        0.1496
     44 C          19.8367   70.7138   -8.2157 C.3     1  UNL1        0.1693
     45 O          18.8883   71.6238   -8.7764 O.3     1  UNL1       -0.3794
     46 H          18.6815   71.3010   -9.6639 H       1  UNL1        0.2105
@<TRIPOS>BOND
     1    29    30    1
     2    29    28    1
     3    29    36    1
     4    30    31    1
     5    30    41    1
     6    31    32    1
     7    31    34    1
     8    32    33    1
     9    32    35    1
    10    33    44    1
    11    33    36    1
    12    44    45    1
    13    39    40    1
    14    39    41   am
    15    39    42    2
    16    41    43    1
    17    28    25    1
    18    34    37    1
    19    35    38    1
    20    45    46    1
    21    15    16   ar
    22    15    20   ar
    23    15     6    1
    24    16    17   ar
    25    16    21    2
    26    17    18   ar
    27    17    23    1
    28    18    19   ar
    29    18    22    2
    30    19    20   ar
    31     6     7    1
    32     6    11    1
    33     7     8    1
    34     7     9    1
    35     8    13    1
    36     9    10    1
    37     9    12    1
    38    10    11    1
    39    10     5    1
    40    12    14    1
    41     5     4    1
    42     4     1    1
    43     1     2    2
    44     1     3    1
    45     1    24    1
    46    24    25    1
    47    25    26    2
    48    25    27    1
@<TRIPOS>MOLECULE
UD1
 46 48 0 0 0
SMALL
GASTEIGER

@<TRIPOS>ATOM
      1 P          20.5196   72.0426   -0.6206 P.3     1  UNL1        0.2189
      2 O          20.2349   70.6155   -0.3538 O.2     1  UNL1       -0.5170
      3 O          19.8648   72.9466    0.5398 O.3     1  UNL1       -0.4371
      4 O          19.8896   72.4581   -2.0430 O.3     1  UNL1       -0.3112
      5 C          19.6844   71.2482   -2.7741 C.3     1  UNL1        0.1811
      6 C          17.5698   70.9122   -5.6625 C.3     1  UNL1        0.2383
      7 C          17.4469   69.5520   -4.9311 C.3     1  UNL1        0.1895
      8 O          16.1591   68.9723   -5.1429 O.3     1  UNL1       -0.3779
      9 C          17.6316   69.9625   -3.4470 C.3     1  UNL1        0.1713
     10 C          18.3522   71.3225   -3.5216 C.3     1  UNL1        0.1764
     11 O          18.5864   71.6090   -4.9109 O.3     1  UNL1       -0.3308
     12 O          16.3626   70.0960   -2.8031 O.3     1  UNL1       -0.3794
     13 H          16.1480   68.1320   -4.6642 H       1  UNL1        0.2106
     14 H          15.9373   69.2290   -2.8415 H       1  UNL1        0.2105
     15 N          17.9945   70.7196   -7.0496 N.ar    1  UNL1       -0.2551
     16 C          17.0705   70.5708   -8.0147 C.ar    1  UNL1        0.3323
     17 N          17.4322   70.3960   -9.2996 N.ar    1  UNL1       -0.2743
     18 C          18.7365   70.3579   -9.6391 C.ar    1  UNL1        0.2626
     19 C          19.7197   70.5071   -8.6322 C.ar    1  UNL1        0.0795
     20 C          19.3291   70.6865   -7.3522 C.ar    1  UNL1        0.0869
     21 O          15.8901   70.6030   -7.7242 O.2     1  UNL1       -0.2464
     22 O          19.0647   70.1951  -10.7998 O.2     1  UNL1       -0.2670
     23 H          16.7522   70.2952   -9.9834 H       1  UNL1        0.1734
     24 O          22.1113   72.2759   -0.6502 O.3     1  UNL1       -0.2703
     25 P          22.7077   71.5808    0.6729 P.3     1  UNL1        0.2208
     26 O          24.0182   70.9694    0.3608 O.2     1  UNL1       -0.5170
     27 O          21.6928   70.4407    1.1850 O.3     1  UNL1       -0.4371
     28 O          22.8934   72.6888    1.8255 O.3     1  UNL1       -0.2865
     29 C          23.2573   71.9901    3.0173 C.3     1  UNL1        0.2611
     30 C          22.7379   72.7601    4.2327 C.3     1  UNL1        0.1582
     31 C          23.3390   74.1701    4.2272 C.3     1  UNL1        0.1625
     32 C          24.8640   74.0524    4.1329 C.3     1  UNL1        0.1686
     33 C          25.2231   73.1872    2.9230 C.3     1  UNL1        0.1760
     34 O          22.9815   74.8479    5.4331 O.3     1  UNL1       -0.3801
     35 O          25.4351   75.3530    3.9785 O.3     1  UNL1       -0.3794
     36 O          24.6772   71.8789    3.0868 O.3     1  UNL1       -0.3263
     37 H          23.3791   75.7283    5.3872 H       1  UNL1        0.2105
     38 H          26.3937   75.2328    3.9225 H       1  UNL1        0.2105
     39 C          20.6904   73.9521    3.6658 C.2     1  UNL1        0.2231
     40 C          19.1872   74.0435    3.6007 C.3     1  UNL1        0.0946
     41 N          21.2776   72.8492    4.1688 N.am    1  UNL1       -0.2994
     42 O          21.3716   74.8720    3.2659 O.2     1  UNL1       -0.2751
     43 H          20.7327   72.1130    4.4891 H       1  UNL1        0.1496
     44 C          26.7452   73.0901    2.8008 C.3     1  UNL1        0.1693
     45 O          27.3434   73.3559    4.0711 O.3     1  UNL1       -0.3794
     46 H          28.2999   73.2851    3.9503 H       1  UNL1        0.2105
@<TRIPOS>BOND
     1    29    30    1
     2    29    28    1
     3    29    36    1
     4    30    31    1
     5    30    41    1
     6    31    32    1
     7    31    34    1
     8    32    33    1
     9    32    35    1
    10    33    44    1
    11    33    36    1
    12    44    45    1
    13    39    40    1
    14    39    41   am
    15    39    42    2
    16    41    43    1
    17    28    25    1
    18    34    37    1
    19    35    38    1
    20    45    46    1
    21    15    16   ar
    22    15    20   ar
    23    15     6    1
    24    16    17   ar
    25    16    21    2
    26    17    18   ar
    27    17    23    1
    28    18    19   ar
    29    18    22    2
    30    19    20   ar
    31     6     7    1
    32     6    11    1
    33     7     8    1
    34     7     9    1
    35     8    13    1
    36     9    10    1
    37     9    12    1
    38    10    11    1
    39    10     5    1
    40    12    14    1
    41     5     4    1
    42     4     1    1
    43     1     2    2
    44     1     3    1
    45     1    24    1
    46    24    25    1
    47    25    26    2
    48    25    27    1
@<TRIPOS>MOLECULE
UD1
 46 48 0 0 0
SMALL
GASTEIGER

@<TRIPOS>ATOM
      1 P          16.0232   69.8450   -2.2598 P.3     1  UNL1        0.2189
      2 O          15.9548   69.7132   -3.7318 O.2     1  UNL1       -0.5170
      3 O          16.3048   68.4016   -1.6042 O.3     1  UNL1       -0.4371
      4 O          14.6244   70.4204   -1.7075 O.3     1  UNL1       -0.3112
      5 C          14.4002   69.8121   -0.4347 C.3     1  UNL1        0.1811
      6 C          11.0329   68.5519   -0.4125 C.3     1  UNL1        0.2383
      7 C          11.6420   68.0555    0.9227 C.3     1  UNL1        0.1895
      8 O          10.6395   67.9511    1.9343 O.3     1  UNL1       -0.3779
      9 C          12.6522   69.1831    1.2590 C.3     1  UNL1        0.1713
     10 C          12.9100   69.8710   -0.0955 C.3     1  UNL1        0.1764
     11 O          12.1538   69.1590   -1.0898 O.3     1  UNL1       -0.3308
     12 O          12.0830   70.1023    2.1939 O.3     1  UNL1       -0.3794
     13 H          11.0816   67.6384    2.7357 H       1  UNL1        0.2106
     14 H          11.8897   69.6002    2.9968 H       1  UNL1        0.2105
     15 N          10.5049   67.4310   -1.1911 N.ar    1  UNL1       -0.2551
     16 C           9.5587   67.6522   -2.1201 C.ar    1  UNL1        0.3323
     17 N           9.0577   66.6408   -2.8537 N.ar    1  UNL1       -0.2743
     18 C           9.4940   65.3798   -2.6599 C.ar    1  UNL1        0.2626
     19 C          10.4855   65.1319   -1.6810 C.ar    1  UNL1        0.0795
     20 C          10.9745   66.1656   -0.9630 C.ar    1  UNL1        0.0869
     21 O           9.1551   68.7840   -2.3066 O.2     1  UNL1       -0.2464
     22 O           9.0383   64.4639   -3.3193 O.2     1  UNL1       -0.2670
     23 H           8.3790   66.8192   -3.5229 H       1  UNL1        0.1734
     24 O          17.2118   70.8555   -1.8661 O.3     1  UNL1       -0.2703
     25 P          18.4645   70.4888   -2.8072 P.3     1  UNL1        0.2208
     26 O          18.4435   69.0417   -3.1146 O.2     1  UNL1       -0.5170
     27 O          19.8346   70.8548   -2.0448 O.3     1  UNL1       -0.4371
     28 O          18.3729   71.3296   -4.1765 O.3     1  UNL1       -0.2865
     29 C          19.1455   70.6235   -5.1490 C.3     1  UNL1        0.2611
     30 C          20.1133   71.5947   -5.8272 C.3     1  UNL1        0.1582
     31 C          19.3115   72.7218   -6.4878 C.3     1  UNL1        0.1625
     32 C          18.2592   72.0987   -7.4110 C.3     1  UNL1        0.1686
     33 C          17.4291   71.0915   -6.6123 C.3     1  UNL1        0.1760
     34 O          20.1904   73.5518   -7.2494 O.3     1  UNL1       -0.3801
     35 O          17.4058   73.1238   -7.9234 O.3     1  UNL1       -0.3794
     36 O          18.2742   70.0514   -6.1221 O.3     1  UNL1       -0.3263
     37 H          19.6457   74.2456   -7.6460 H       1  UNL1        0.2105
     38 H          16.7595   72.6888   -8.4975 H       1  UNL1        0.2105
     39 C          22.3120   72.3865   -5.1395 C.2     1  UNL1        0.2231
     40 C          23.2467   72.9677   -4.1095 C.3     1  UNL1        0.0946
     41 N          21.0216   72.1597   -4.8272 N.am    1  UNL1       -0.2994
     42 O          22.7219   72.1224   -6.2497 O.2     1  UNL1       -0.2751
     43 H          20.6934   72.3708   -3.9387 H       1  UNL1        0.1496
     44 C          16.3537   70.4871   -7.5174 C.3     1  UNL1        0.1693
     45 O          15.6094   69.5103   -6.7867 O.3     1  UNL1       -0.3794
     46 H          14.9444   69.1549   -7.3918 H       1  UNL1        0.2105
@<TRIPOS>BOND
     1    29    30    1
     2    29    28    1
     3    29    36    1
     4    30    31    1
     5    30    41    1
     6    31    32    1
     7    31    34    1
     8    32    33    1
     9    32    35    1
    10    33    44    1
    11    33    36    1
    12    44    45    1
    13    39    40    1
    14    39    41   am
    15    39    42    2
    16    41    43    1
    17    28    25    1
    18    34    37    1
    19    35    38    1
    20    45    46    1
    21    15    16   ar
    22    15    20   ar
    23    15     6    1
    24    16    17   ar
    25    16    21    2
    26    17    18   ar
    27    17    23    1
    28    18    19   ar
    29    18    22    2
    30    19    20   ar
    31     6     7    1
    32     6    11    1
    33     7     8    1
    34     7     9    1
    35     8    13    1
    36     9    10    1
    37     9    12    1
    38    10    11    1
    39    10     5    1
    40    12    14    1
    41     5     4    1
    42     4     1    1
    43     1     2    2
    44     1     3    1
    45     1    24    1
    46    24    25    1
    47    25    26    2
    48    25    27    1
@<TRIPOS>MOLECULE
UD1
 46 48 0 0 0
SMALL
GASTEIGER

@<TRIPOS>ATOM
      1 P          23.5163   72.2110   -3.2569 P.3     1  UNL1        0.2189
      2 O          24.4247   73.0402   -4.0790 O.2     1  UNL1       -0.5170
      3 O          24.1936   70.7745   -2.9916 O.3     1  UNL1       -0.4371
      4 O          22.1216   72.0098   -4.0361 O.3     1  UNL1       -0.3112
      5 C          22.3687   72.3087   -5.4109 C.3     1  UNL1        0.1811
      6 C          19.2607   70.6456   -6.1191 C.3     1  UNL1        0.2383
      7 C          19.0606   72.0862   -6.6530 C.3     1  UNL1        0.1895
      8 O          18.1736   72.0979   -7.7721 O.3     1  UNL1       -0.3779
      9 C          20.4986   72.4770   -7.0825 C.3     1  UNL1        0.1713
     10 C          21.4014   71.5130   -6.2886 C.3     1  UNL1        0.1764
     11 O          20.5456   70.7039   -5.4640 O.3     1  UNL1       -0.3308
     12 O          20.6693   72.2886   -8.4890 O.3     1  UNL1       -0.3794
     13 H          18.0916   73.0192   -8.0549 H       1  UNL1        0.2106
     14 H          20.0375   72.8737   -8.9278 H       1  UNL1        0.2105
     15 N          18.2094   70.2952   -5.1634 N.ar    1  UNL1       -0.2551
     16 C          17.0843   69.7018   -5.5984 C.ar    1  UNL1        0.3323
     17 N          16.1024   69.3648   -4.7413 N.ar    1  UNL1       -0.2743
     18 C          16.2297   69.6275   -3.4250 C.ar    1  UNL1        0.2626
     19 C          17.4064   70.2572   -2.9543 C.ar    1  UNL1        0.0795
     20 C          18.3778   70.5797   -3.8351 C.ar    1  UNL1        0.0869
     21 O          16.9547   69.4583   -6.7827 O.2     1  UNL1       -0.2464
     22 O          15.3406   69.3276   -2.6498 O.2     1  UNL1       -0.2670
     23 H          15.2996   68.9330   -5.0719 H       1  UNL1        0.1734
     24 O          23.2443   72.9450   -1.8512 O.3     1  UNL1       -0.2703
     25 P          22.8322   71.7985   -0.8001 P.3     1  UNL1        0.2208
     26 O          24.0295   71.0088   -0.4370 O.2     1  UNL1       -0.5170
     27 O          21.7325   70.8291   -1.4660 O.3     1  UNL1       -0.4371
     28 O          22.2161   72.4776    0.5227 O.3     1  UNL1       -0.2865
     29 C          22.9381   73.6911    0.7403 C.3     1  UNL1        0.2611
     30 C          23.6499   73.6197    2.0924 C.3     1  UNL1        0.1582
     31 C          22.6085   73.4043    3.1963 C.3     1  UNL1        0.1625
     32 C          21.5380   74.4945    3.0798 C.3     1  UNL1        0.1686
     33 C          20.9833   74.4978    1.6537 C.3     1  UNL1        0.1760
     34 O          23.2419   73.4852    4.4745 O.3     1  UNL1       -0.3801
     35 O          20.4818   74.2280    4.0044 O.3     1  UNL1       -0.3794
     36 O          22.0305   74.7909    0.7297 O.3     1  UNL1       -0.3263
     37 H          22.5522   73.3440    5.1375 H       1  UNL1        0.2105
     38 H          19.8309   74.9361    3.8972 H       1  UNL1        0.2105
     39 C          25.8168   72.6526    2.6433 C.2     1  UNL1        0.2231
     40 C          26.7931   71.5041    2.6384 C.3     1  UNL1        0.0946
     41 N          24.5985   72.5042    2.0884 N.am    1  UNL1       -0.2994
     42 O          26.1283   73.7110    3.1463 O.2     1  UNL1       -0.2751
     43 H          24.3490   71.6573    1.6856 H       1  UNL1        0.1496
     44 C          19.8900   75.5618    1.5356 C.3     1  UNL1        0.1693
     45 O          18.6866   75.0774    2.1348 O.3     1  UNL1       -0.3794
     46 H          18.0253   75.7760    2.0388 H       1  UNL1        0.2105
@<TRIPOS>BOND
     1    29    30    1
     2    29    28    1
     3    29    36    1
     4    30    31    1
     5    30    41    1
     6    31    32    1
     7    31    34    1
     8    32    33    1
     9    32    35    1
    10    33    44    1
    11    33    36    1
    12    44    45    1
    13    39    40    1
    14    39    41   am
    15    39    42    2
    16    41    43    1
    17    28    25    1
    18    34    37    1
    19    35    38    1
    20    45    46    1
    21    15    16   ar
    22    15    20   ar
    23    15     6    1
    24    16    17   ar
    25    16    21    2
    26    17    18   ar
    27    17    23    1
    28    18    19   ar
    29    18    22    2
    30    19    20   ar
    31     6     7    1
    32     6    11    1
    33     7     8    1
    34     7     9    1
    35     8    13    1
    36     9    10    1
    37     9    12    1
    38    10    11    1
    39    10     5    1
    40    12    14    1
    41     5     4    1
    42     4     1    1
    43     1     2    2
    44     1     3    1
    45     1    24    1
    46    24    25    1
    47    25    26    2
    48    25    27    1
@<TRIPOS>MOLECULE
UD1
 46 48 0 0 0
SMALL
GASTEIGER

@<TRIPOS>ATOM
      1 P          20.7324   71.1815   -1.0792 P.3     1  UNL1        0.2189
      2 O          21.1358   70.5873    0.2142 O.2     1  UNL1       -0.5170
      3 O          20.8485   72.7852   -0.9925 O.3     1  UNL1       -0.4371
      4 O          19.2099   70.7716   -1.4059 O.3     1  UNL1       -0.3112
      5 C          19.2333   70.0337   -2.6287 C.3     1  UNL1        0.1811
      6 C          17.3553   70.3965   -5.6732 C.3     1  UNL1        0.2383
      7 C          17.0703   68.9452   -5.2119 C.3     1  UNL1        0.1895
      8 O          15.7664   68.5269   -5.6168 O.3     1  UNL1       -0.3779
      9 C          17.1567   69.0712   -3.6686 C.3     1  UNL1        0.1713
     10 C          17.9791   70.3546   -3.4432 C.3     1  UNL1        0.1764
     11 O          18.3521   70.8587   -4.7370 O.3     1  UNL1       -0.3308
     12 O          15.8504   69.2005   -3.1032 O.3     1  UNL1       -0.3794
     13 H          15.6524   67.6199   -5.3009 H       1  UNL1        0.2106
     14 H          15.3674   68.3943   -3.3289 H       1  UNL1        0.2105
     15 N          17.8820   70.4137   -7.0384 N.ar    1  UNL1       -0.2551
     16 C          17.0325   70.4403   -8.0800 C.ar    1  UNL1        0.3323
     17 N          17.4889   70.4606   -9.3463 N.ar    1  UNL1       -0.2743
     18 C          18.8147   70.4450   -9.5910 C.ar    1  UNL1        0.2626
     19 C          19.7201   70.4109   -8.5039 C.ar    1  UNL1        0.0795
     20 C          19.2353   70.3966   -7.2437 C.ar    1  UNL1        0.0869
     21 O          15.8339   70.4547   -7.8754 O.2     1  UNL1       -0.2464
     22 O          19.2284   70.4584  -10.7356 O.2     1  UNL1       -0.2670
     23 H          16.8619   70.4845  -10.0855 H       1  UNL1        0.1734
     24 O          21.6971   70.6349   -2.2451 O.3     1  UNL1       -0.2703
     25 P          23.0595   71.4869   -2.1588 P.3     1  UNL1        0.2208
     26 O          24.1377   70.7663   -2.8709 O.2     1  UNL1       -0.5170
     27 O          23.4741   71.6826   -0.6155 O.3     1  UNL1       -0.4371
     28 O          22.8366   72.9281   -2.8400 O.3     1  UNL1       -0.2865
     29 C          23.9990   73.1997   -3.6251 C.3     1  UNL1        0.2611
     30 C          24.2550   74.7077   -3.6435 C.3     1  UNL1        0.1582
     31 C          23.0288   75.4171   -4.2288 C.3     1  UNL1        0.1625
     32 C          22.7057   74.7939   -5.5910 C.3     1  UNL1        0.1686
     33 C          22.5636   73.2795   -5.4250 C.3     1  UNL1        0.1760
     34 O          23.3120   76.8082   -4.3901 O.3     1  UNL1       -0.3801
     35 O          21.4817   75.3387   -6.0876 O.3     1  UNL1       -0.3794
     36 O          23.7932   72.7284   -4.9551 O.3     1  UNL1       -0.3263
     37 H          22.5159   77.2145   -4.7594 H       1  UNL1        0.2105
     38 H          21.3161   74.9196   -6.9440 H       1  UNL1        0.2105
     39 C          23.4633   75.6380   -1.5359 C.2     1  UNL1        0.2231
     40 C          23.7063   76.1260   -0.1305 C.3     1  UNL1        0.0946
     41 N          24.4904   75.1813   -2.2780 N.am    1  UNL1       -0.2994
     42 O          22.3430   75.6571   -1.9991 O.2     1  UNL1       -0.2751
     43 H          25.3872   75.1662   -1.9076 H       1  UNL1        0.1496
     44 C          22.2088   72.6509   -6.7741 C.3     1  UNL1        0.1693
     45 O          23.0992   73.1423   -7.7779 O.3     1  UNL1       -0.3794
     46 H          22.8417   72.7229   -8.6100 H       1  UNL1        0.2105
@<TRIPOS>BOND
     1    29    30    1
     2    29    28    1
     3    29    36    1
     4    30    31    1
     5    30    41    1
     6    31    32    1
     7    31    34    1
     8    32    33    1
     9    32    35    1
    10    33    44    1
    11    33    36    1
    12    44    45    1
    13    39    40    1
    14    39    41   am
    15    39    42    2
    16    41    43    1
    17    28    25    1
    18    34    37    1
    19    35    38    1
    20    45    46    1
    21    15    16   ar
    22    15    20   ar
    23    15     6    1
    24    16    17   ar
    25    16    21    2
    26    17    18   ar
    27    17    23    1
    28    18    19   ar
    29    18    22    2
    30    19    20   ar
    31     6     7    1
    32     6    11    1
    33     7     8    1
    34     7     9    1
    35     8    13    1
    36     9    10    1
    37     9    12    1
    38    10    11    1
    39    10     5    1
    40    12    14    1
    41     5     4    1
    42     4     1    1
    43     1     2    2
    44     1     3    1
    45     1    24    1
    46    24    25    1
    47    25    26    2
    48    25    27    1
@<TRIPOS>MOLECULE
UD1
 46 48 0 0 0
SMALL
GASTEIGER

@<TRIPOS>ATOM
      1 P          20.8553   71.7275   -2.1310 P.3     1  UNL1        0.2189
      2 O          21.3836   72.9334   -2.8058 O.2     1  UNL1       -0.5170
      3 O          22.0769   70.7577   -1.7310 O.3     1  UNL1       -0.4371
      4 O          19.8578   70.9494   -3.1271 O.3     1  UNL1       -0.3112
      5 C          18.6970   70.6088   -2.3676 C.3     1  UNL1        0.1811
      6 C          16.9754   70.5710   -5.5239 C.3     1  UNL1        0.2383
      7 C          16.9129   69.1039   -5.0300 C.3     1  UNL1        0.1895
      8 O          15.7261   68.4587   -5.4933 O.3     1  UNL1       -0.3779
      9 C          16.8816   69.2799   -3.4895 C.3     1  UNL1        0.1713
     10 C          17.4590   70.6904   -3.2621 C.3     1  UNL1        0.1764
     11 O          17.8200   71.2195   -4.5494 O.3     1  UNL1       -0.3308
     12 O          15.5400   69.1972   -3.0036 O.3     1  UNL1       -0.3794
     13 H          15.7484   67.5535   -5.1534 H       1  UNL1        0.2106
     14 H          15.2155   68.3150   -3.2283 H       1  UNL1        0.2105
     15 N          17.5746   70.6451   -6.8569 N.ar    1  UNL1       -0.2551
     16 C          17.0582   71.4817   -7.7739 C.ar    1  UNL1        0.3323
     17 N          17.5913   71.5735   -9.0066 N.ar    1  UNL1       -0.2743
     18 C          18.6534   70.8154   -9.3458 C.ar    1  UNL1        0.2626
     19 C          19.2033   69.9260   -8.3920 C.ar    1  UNL1        0.0795
     20 C          18.6522   69.8578   -7.1612 C.ar    1  UNL1        0.0869
     21 O          16.1004   72.1721   -7.4831 O.2     1  UNL1       -0.2464
     22 O          19.1333   70.8940  -10.4615 O.2     1  UNL1       -0.2670
     23 H          17.2090   72.1858   -9.6540 H       1  UNL1        0.1734
     24 O          20.0568   72.1618   -0.8034 O.3     1  UNL1       -0.2703
     25 P          21.0892   72.0307    0.4239 P.3     1  UNL1        0.2208
     26 O          22.3954   72.6049    0.0330 O.2     1  UNL1       -0.5170
     27 O          21.2785   70.4774    0.8033 O.3     1  UNL1       -0.4371
     28 O          20.5131   72.8266    1.6988 O.3     1  UNL1       -0.2865
     29 C          20.8409   74.2043    1.5100 C.3     1  UNL1        0.2611
     30 C          21.0931   74.8545    2.8715 C.3     1  UNL1        0.1582
     31 C          19.8356   74.7110    3.7362 C.3     1  UNL1        0.1625
     32 C          18.6395   75.2698    2.9583 C.3     1  UNL1        0.1686
     33 C          18.5706   74.5859    1.5913 C.3     1  UNL1        0.1760
     34 O          20.0044   75.4424    4.9519 O.3     1  UNL1       -0.3801
     35 O          17.4356   75.0133    3.6838 O.3     1  UNL1       -0.3794
     36 O          19.7601   74.8628    0.8531 O.3     1  UNL1       -0.3263
     37 H          19.1925   75.3246    5.4639 H       1  UNL1        0.2105
     38 H          16.7095   75.3799    3.1595 H       1  UNL1        0.2105
     39 C          23.3316   74.8887    3.8320 C.2     1  UNL1        0.2231
     40 C          24.4914   74.2047    4.5096 C.3     1  UNL1        0.0946
     41 N          22.2199   74.1906    3.5303 N.am    1  UNL1       -0.2994
     42 O          23.3993   76.0679    3.5576 O.2     1  UNL1       -0.2751
     43 H          22.1655   73.2469    3.7495 H       1  UNL1        0.1496
     44 C          17.3598   75.1136    0.8188 C.3     1  UNL1        0.1693
     45 O          17.6757   76.3851    0.2481 O.3     1  UNL1       -0.3794
     46 H          16.8883   76.6814   -0.2282 H       1  UNL1        0.2105
@<TRIPOS>BOND
     1    29    30    1
     2    29    28    1
     3    29    36    1
     4    30    31    1
     5    30    41    1
     6    31    32    1
     7    31    34    1
     8    32    33    1
     9    32    35    1
    10    33    44    1
    11    33    36    1
    12    44    45    1
    13    39    40    1
    14    39    41   am
    15    39    42    2
    16    41    43    1
    17    28    25    1
    18    34    37    1
    19    35    38    1
    20    45    46    1
    21    15    16   ar
    22    15    20   ar
    23    15     6    1
    24    16    17   ar
    25    16    21    2
    26    17    18   ar
    27    17    23    1
    28    18    19   ar
    29    18    22    2
    30    19    20   ar
    31     6     7    1
    32     6    11    1
    33     7     8    1
    34     7     9    1
    35     8    13    1
    36     9    10    1
    37     9    12    1
    38    10    11    1
    39    10     5    1
    40    12    14    1
    41     5     4    1
    42     4     1    1
    43     1     2    2
    44     1     3    1
    45     1    24    1
    46    24    25    1
    47    25    26    2
    48    25    27    1
@<TRIPOS>MOLECULE
UD1
 46 48 0 0 0
SMALL
GASTEIGER

@<TRIPOS>ATOM
      1 P          21.0662   71.2723   -2.1394 P.3     1  UNL1        0.2189
      2 O          22.3705   70.7827   -2.6373 O.2     1  UNL1       -0.5170
      3 O          20.7580   70.6128   -0.7033 O.3     1  UNL1       -0.4371
      4 O          19.9069   70.8600   -3.1781 O.3     1  UNL1       -0.3112
      5 C          18.7237   70.6356   -2.4100 C.3     1  UNL1        0.1811
      6 C          17.0546   70.5087   -5.5921 C.3     1  UNL1        0.2383
      7 C          16.9820   69.0564   -5.0574 C.3     1  UNL1        0.1895
      8 O          15.8023   68.3992   -5.5217 O.3     1  UNL1       -0.3779
      9 C          16.9255   69.2766   -3.5233 C.3     1  UNL1        0.1713
     10 C          17.5009   70.6925   -3.3269 C.3     1  UNL1        0.1764
     11 O          17.8837   71.1842   -4.6226 O.3     1  UNL1       -0.3308
     12 O          15.5759   69.2089   -3.0575 O.3     1  UNL1       -0.3794
     13 H          15.8177   67.5041   -5.1557 H       1  UNL1        0.2106
     14 H          15.2540   68.3209   -3.2623 H       1  UNL1        0.2105
     15 N          17.6759   70.5441   -6.9165 N.ar    1  UNL1       -0.2551
     16 C          16.9062   70.4632   -8.0158 C.ar    1  UNL1        0.3323
     17 N          17.4501   70.4973   -9.2468 N.ar    1  UNL1       -0.2743
     18 C          18.7857   70.6045   -9.3968 C.ar    1  UNL1        0.2626
     19 C          19.6082   70.6845   -8.2479 C.ar    1  UNL1        0.0795
     20 C          19.0360   70.6534   -7.0253 C.ar    1  UNL1        0.0869
     21 O          15.6999   70.3662   -7.8969 O.2     1  UNL1       -0.2464
     22 O          19.2789   70.6305  -10.5092 O.2     1  UNL1       -0.2670
     23 H          16.8794   70.4426  -10.0288 H       1  UNL1        0.1734
     24 O          21.1134   72.8742   -1.9964 O.3     1  UNL1       -0.2703
     25 P          22.2543   73.2108   -0.9127 P.3     1  UNL1        0.2208
     26 O          22.7498   74.5878   -1.1298 O.2     1  UNL1       -0.5170
     27 O          23.4728   72.1710   -1.0747 O.3     1  UNL1       -0.4371
     28 O          21.6404   73.0890    0.5701 O.3     1  UNL1       -0.2865
     29 C          22.0333   74.2654    1.2793 C.3     1  UNL1        0.2611
     30 C          22.6299   73.8653    2.6299 C.3     1  UNL1        0.1582
     31 C          21.5837   73.0774    3.4263 C.3     1  UNL1        0.1625
     32 C          20.2979   73.9075    3.5017 C.3     1  UNL1        0.1686
     33 C          19.8755   74.3018    2.0849 C.3     1  UNL1        0.1760
     34 O          22.0742   72.8274    4.7448 O.3     1  UNL1       -0.3801
     35 O          19.2639   73.1327    4.1119 O.3     1  UNL1       -0.3794
     36 O          20.8943   75.0990    1.4823 O.3     1  UNL1       -0.3263
     37 H          21.3864   72.3308    5.2092 H       1  UNL1        0.2105
     38 H          18.4743   73.6916    4.1386 H       1  UNL1        0.2105
     39 C          23.6925   71.6901    2.3584 C.2     1  UNL1        0.2231
     40 C          24.9113   70.8311    2.1373 C.3     1  UNL1        0.0946
     41 N          23.8135   73.0304    2.4146 N.am    1  UNL1       -0.2994
     42 O          22.6026   71.1746    2.4864 O.2     1  UNL1       -0.2751
     43 H          24.6857   73.4433    2.3125 H       1  UNL1        0.1496
     44 C          18.5740   75.1040    2.1466 C.3     1  UNL1        0.1693
     45 O          17.8641   74.7695    3.3409 O.3     1  UNL1       -0.3794
     46 H          17.0526   75.2951    3.3406 H       1  UNL1        0.2105
@<TRIPOS>BOND
     1    29    30    1
     2    29    28    1
     3    29    36    1
     4    30    31    1
     5    30    41    1
     6    31    32    1
     7    31    34    1
     8    32    33    1
     9    32    35    1
    10    33    44    1
    11    33    36    1
    12    44    45    1
    13    39    40    1
    14    39    41   am
    15    39    42    2
    16    41    43    1
    17    28    25    1
    18    34    37    1
    19    35    38    1
    20    45    46    1
    21    15    16   ar
    22    15    20   ar
    23    15     6    1
    24    16    17   ar
    25    16    21    2
    26    17    18   ar
    27    17    23    1
    28    18    19   ar
    29    18    22    2
    30    19    20   ar
    31     6     7    1
    32     6    11    1
    33     7     8    1
    34     7     9    1
    35     8    13    1
    36     9    10    1
    37     9    12    1
    38    10    11    1
    39    10     5    1
    40    12    14    1
    41     5     4    1
    42     4     1    1
    43     1     2    2
    44     1     3    1
    45     1    24    1
    46    24    25    1
    47    25    26    2
    48    25    27    1
@<TRIPOS>MOLECULE
UD1
 46 48 0 0 0
SMALL
GASTEIGER

@<TRIPOS>ATOM
      1 P          21.7492   72.3339   -6.2504 P.3     1  UNL1        0.2189
      2 O          20.7610   73.3711   -6.6195 O.2     1  UNL1       -0.5170
      3 O          23.2263   72.8323   -6.6532 O.3     1  UNL1       -0.4371
      4 O          21.4120   70.9688   -7.0349 O.3     1  UNL1       -0.3112
      5 C          20.5617   71.3188   -8.1280 C.3     1  UNL1        0.1811
      6 C          17.4125   70.0848   -6.9086 C.3     1  UNL1        0.2383
      7 C          17.0289   71.1315   -7.9845 C.3     1  UNL1        0.1895
      8 O          15.7982   70.7838   -8.6199 O.3     1  UNL1       -0.3779
      9 C          18.2143   71.0257   -8.9789 C.3     1  UNL1        0.1713
     10 C          19.3456   70.3915   -8.1467 C.3     1  UNL1        0.1764
     11 O          18.8469   70.2120   -6.8101 O.3     1  UNL1       -0.3308
     12 O          17.8673   70.1881  -10.0838 O.3     1  UNL1       -0.3794
     13 H          15.6169   71.4720   -9.2749 H       1  UNL1        0.2106
     14 H          17.1180   70.6074  -10.5275 H       1  UNL1        0.2105
     15 N          16.7773   70.3994   -5.6283 N.ar    1  UNL1       -0.2551
     16 C          16.3662   69.4023   -4.8257 C.ar    1  UNL1        0.3323
     17 N          15.7825   69.6621   -3.6408 N.ar    1  UNL1       -0.2743
     18 C          15.5916   70.9359   -3.2422 C.ar    1  UNL1        0.2626
     19 C          16.0142   71.9953   -4.0801 C.ar    1  UNL1        0.0795
     20 C          16.6017   71.7063   -5.2610 C.ar    1  UNL1        0.0869
     21 O          16.5315   68.2482   -5.1712 O.2     1  UNL1       -0.2464
     22 O          15.0596   71.1721   -2.1733 O.2     1  UNL1       -0.2670
     23 H          15.4964   68.9305   -3.0724 H       1  UNL1        0.1734
     24 O          21.6843   72.0711   -4.6643 O.3     1  UNL1       -0.2703
     25 P          22.6802   73.1314   -3.9763 P.3     1  UNL1        0.2208
     26 O          22.5386   74.4449   -4.6422 O.2     1  UNL1       -0.5170
     27 O          24.1986   72.6166   -4.1240 O.3     1  UNL1       -0.4371
     28 O          22.3145   73.2788   -2.4159 O.3     1  UNL1       -0.2865
     29 C          23.1833   72.3978   -1.7015 C.3     1  UNL1        0.2611
     30 C          22.3499   71.4996   -0.7857 C.3     1  UNL1        0.1582
     31 C          21.5513   72.3767    0.1851 C.3     1  UNL1        0.1625
     32 C          22.5210   73.3204    0.9041 C.3     1  UNL1        0.1686
     33 C          23.3395   74.0837   -0.1395 C.3     1  UNL1        0.1760
     34 O          20.8857   71.5494    1.1411 O.3     1  UNL1       -0.3801
     35 O          21.7826   74.2456    1.7043 O.3     1  UNL1       -0.3794
     36 O          24.0995   73.1642   -0.9228 O.3     1  UNL1       -0.3263
     37 H          20.3967   72.1406    1.7299 H       1  UNL1        0.2105
     38 H          22.4301   74.8198    2.1375 H       1  UNL1        0.2105
     39 C          20.1556   71.1012   -1.7659 C.2     1  UNL1        0.2231
     40 C          19.2077   70.2743   -2.5965 C.3     1  UNL1        0.0946
     41 N          21.4288   70.6969   -1.5929 N.am    1  UNL1       -0.2994
     42 O          19.7721   72.1306   -1.2526 O.2     1  UNL1       -0.2751
     43 H          21.7359   69.8730   -2.0033 H       1  UNL1        0.1496
     44 C          24.2887   75.0530    0.5679 C.3     1  UNL1        0.1693
     45 O          24.7639   74.4578    1.7770 O.3     1  UNL1       -0.3794
     46 H          25.3568   75.0996    2.1907 H       1  UNL1        0.2105
@<TRIPOS>BOND
     1    29    30    1
     2    29    28    1
     3    29    36    1
     4    30    31    1
     5    30    41    1
     6    31    32    1
     7    31    34    1
     8    32    33    1
     9    32    35    1
    10    33    44    1
    11    33    36    1
    12    44    45    1
    13    39    40    1
    14    39    41   am
    15    39    42    2
    16    41    43    1
    17    28    25    1
    18    34    37    1
    19    35    38    1
    20    45    46    1
    21    15    16   ar
    22    15    20   ar
    23    15     6    1
    24    16    17   ar
    25    16    21    2
    26    17    18   ar
    27    17    23    1
    28    18    19   ar
    29    18    22    2
    30    19    20   ar
    31     6     7    1
    32     6    11    1
    33     7     8    1
    34     7     9    1
    35     8    13    1
    36     9    10    1
    37     9    12    1
    38    10    11    1
    39    10     5    1
    40    12    14    1
    41     5     4    1
    42     4     1    1
    43     1     2    2
    44     1     3    1
    45     1    24    1
    46    24    25    1
    47    25    26    2
    48    25    27    1
@<TRIPOS>MOLECULE
UD1
 46 48 0 0 0
SMALL
GASTEIGER

@<TRIPOS>ATOM
      1 P          22.9152   72.5975   -1.3848 P.3     1  UNL1        0.2189
      2 O          23.7866   73.4814   -2.1899 O.2     1  UNL1       -0.5170
      3 O          23.8113   71.7803   -0.3257 O.3     1  UNL1       -0.4371
      4 O          22.1575   71.5616   -2.3573 O.3     1  UNL1       -0.3112
      5 C          21.6091   72.3275   -3.4311 C.3     1  UNL1        0.1811
      6 C          18.6778   71.1411   -5.1421 C.3     1  UNL1        0.2383
      7 C          19.1743   69.9190   -4.3297 C.3     1  UNL1        0.1895
      8 O          18.0820   69.0845   -3.9427 O.3     1  UNL1       -0.3779
      9 C          19.8219   70.5923   -3.0917 C.3     1  UNL1        0.1713
     10 C          20.1139   72.0316   -3.5583 C.3     1  UNL1        0.1764
     11 O          19.7121   72.1266   -4.9355 O.3     1  UNL1       -0.3308
     12 O          18.9127   70.5917   -1.9889 O.3     1  UNL1       -0.3794
     13 H          18.4570   68.3458   -3.4434 H       1  UNL1        0.2106
     14 H          18.7234   69.6664   -1.7836 H       1  UNL1        0.2105
     15 N          18.5591   70.8074   -6.5620 N.ar    1  UNL1       -0.2551
     16 C          17.3670   70.4389   -7.0624 C.ar    1  UNL1        0.3323
     17 N          17.2277   70.1302   -8.3653 N.ar    1  UNL1       -0.2743
     18 C          18.2916   70.1773   -9.1923 C.ar    1  UNL1        0.2626
     19 C          19.5537   70.5578   -8.6774 C.ar    1  UNL1        0.0795
     20 C          19.6641   70.8675   -7.3677 C.ar    1  UNL1        0.0869
     21 O          16.3981   70.3918   -6.3292 O.2     1  UNL1       -0.2464
     22 O          18.1678   69.8938  -10.3695 O.2     1  UNL1       -0.2670
     23 H          16.3594   69.8711   -8.7103 H       1  UNL1        0.1734
     24 O          21.8295   73.4865   -0.5976 O.3     1  UNL1       -0.2703
     25 P          20.9678   72.4735    0.3082 P.3     1  UNL1        0.2208
     26 O          21.2851   71.0796   -0.0729 O.2     1  UNL1       -0.5170
     27 O          19.3983   72.7483    0.0772 O.3     1  UNL1       -0.4371
     28 O          21.3281   72.7005    1.8604 O.3     1  UNL1       -0.2865
     29 C          21.7667   74.0540    1.9904 C.3     1  UNL1        0.2611
     30 C          22.9118   74.1189    3.0026 C.3     1  UNL1        0.1582
     31 C          22.4211   73.5772    4.3499 C.3     1  UNL1        0.1625
     32 C          21.1525   74.3374    4.7511 C.3     1  UNL1        0.1686
     33 C          20.1388   74.2535    3.6080 C.3     1  UNL1        0.1760
     34 O          23.4324   73.7703    5.3406 O.3     1  UNL1       -0.3801
     35 O          20.5962   73.7507    5.9292 O.3     1  UNL1       -0.3794
     36 O          20.6808   74.8632    2.4371 O.3     1  UNL1       -0.3263
     37 H          23.0826   73.4160    6.1697 H       1  UNL1        0.2105
     38 H          19.8010   74.2580    6.1456 H       1  UNL1        0.2105
     39 C          24.1499   72.0227    2.9169 C.2     1  UNL1        0.2231
     40 C          25.3048   71.1870    2.4268 C.3     1  UNL1        0.0946
     41 N          24.0332   73.3064    2.5263 N.am    1  UNL1       -0.2994
     42 O          23.3259   71.5396    3.6637 O.2     1  UNL1       -0.2751
     43 H          24.6926   73.6934    1.9288 H       1  UNL1        0.1496
     44 C          18.8554   74.9823    4.0116 C.3     1  UNL1        0.1693
     45 O          19.1794   76.0797    4.8677 O.3     1  UNL1       -0.3794
     46 H          18.3452   76.5104    5.0983 H       1  UNL1        0.2105
@<TRIPOS>BOND
     1    29    30    1
     2    29    28    1
     3    29    36    1
     4    30    31    1
     5    30    41    1
     6    31    32    1
     7    31    34    1
     8    32    33    1
     9    32    35    1
    10    33    44    1
    11    33    36    1
    12    44    45    1
    13    39    40    1
    14    39    41   am
    15    39    42    2
    16    41    43    1
    17    28    25    1
    18    34    37    1
    19    35    38    1
    20    45    46    1
    21    15    16   ar
    22    15    20   ar
    23    15     6    1
    24    16    17   ar
    25    16    21    2
    26    17    18   ar
    27    17    23    1
    28    18    19   ar
    29    18    22    2
    30    19    20   ar
    31     6     7    1
    32     6    11    1
    33     7     8    1
    34     7     9    1
    35     8    13    1
    36     9    10    1
    37     9    12    1
    38    10    11    1
    39    10     5    1
    40    12    14    1
    41     5     4    1
    42     4     1    1
    43     1     2    2
    44     1     3    1
    45     1    24    1
    46    24    25    1
    47    25    26    2
    48    25    27    1
@<TRIPOS>MOLECULE
UD1
 46 48 0 0 0
SMALL
GASTEIGER

@<TRIPOS>ATOM
      1 P          21.4920   71.6958   -1.8834 P.3     1  UNL1        0.2189
      2 O          21.1646   73.1189   -2.1209 O.2     1  UNL1       -0.5170
      3 O          22.1073   71.0553   -3.2264 O.3     1  UNL1       -0.4371
      4 O          20.1539   70.8990   -1.4743 O.3     1  UNL1       -0.3112
      5 C          19.8480   70.0199   -2.5578 C.3     1  UNL1        0.1811
      6 C          17.6750   70.5697   -5.3690 C.3     1  UNL1        0.2383
      7 C          17.3012   69.1548   -4.8603 C.3     1  UNL1        0.1895
      8 O          15.9237   68.8705   -5.1067 O.3     1  UNL1       -0.3779
      9 C          17.5786   69.2720   -3.3390 C.3     1  UNL1        0.1713
     10 C          18.5463   70.4658   -3.2257 C.3     1  UNL1        0.1764
     11 O          18.8151   70.9290   -4.5600 O.3     1  UNL1       -0.3308
     12 O          16.3665   69.5330   -2.6281 O.3     1  UNL1       -0.3794
     13 H          15.7567   67.9797   -4.7688 H       1  UNL1        0.2106
     14 H          15.7820   68.7798   -2.7866 H       1  UNL1        0.2105
     15 N          18.0385   70.5330   -6.7860 N.ar    1  UNL1       -0.2551
     16 C          17.0754   70.5845   -7.7225 C.ar    1  UNL1        0.3323
     17 N          17.3810   70.5565   -9.0333 N.ar    1  UNL1       -0.2743
     18 C          18.6666   70.4662   -9.4295 C.ar    1  UNL1        0.2626
     19 C          19.6901   70.4052   -8.4541 C.ar    1  UNL1        0.0795
     20 C          19.3559   70.4405   -7.1462 C.ar    1  UNL1        0.0869
     21 O          15.9113   70.6661   -7.3809 O.2     1  UNL1       -0.2464
     22 O          18.9437   70.4360  -10.6143 O.2     1  UNL1       -0.2670
     23 H          16.6738   70.5994   -9.6953 H       1  UNL1        0.1734
     24 O          22.5681   71.5841   -0.6925 O.3     1  UNL1       -0.2703
     25 P          21.7390   71.6015    0.6864 P.3     1  UNL1        0.2208
     26 O          21.4567   70.2123    1.1097 O.2     1  UNL1       -0.5170
     27 O          20.3510   72.3880    0.4690 O.3     1  UNL1       -0.4371
     28 O          22.6023   72.3440    1.8239 O.3     1  UNL1       -0.2865
     29 C          22.2532   73.7284    1.7717 C.3     1  UNL1        0.2611
     30 C          23.4967   74.5502    1.4276 C.3     1  UNL1        0.1582
     31 C          24.5714   74.3029    2.4922 C.3     1  UNL1        0.1625
     32 C          23.9671   74.5816    3.8726 C.3     1  UNL1        0.1686
     33 C          22.6896   73.7549    4.0334 C.3     1  UNL1        0.1760
     34 O          25.6795   75.1760    2.2658 O.3     1  UNL1       -0.3801
     35 O          24.9048   74.2172    4.8872 O.3     1  UNL1       -0.3794
     36 O          21.7403   74.1359    3.0383 O.3     1  UNL1       -0.3263
     37 H          26.3299   74.9867    2.9561 H       1  UNL1        0.2105
     38 H          24.4846   74.4077    5.7379 H       1  UNL1        0.2105
     39 C          23.8647   74.9647   -0.9446 C.2     1  UNL1        0.2231
     40 C          24.3866   74.5467   -2.2956 C.3     1  UNL1        0.0946
     41 N          24.0040   74.1449    0.1150 N.am    1  UNL1       -0.2994
     42 O          23.3185   76.0390   -0.8115 O.2     1  UNL1       -0.2751
     43 H          24.4408   73.2850    0.0087 H       1  UNL1        0.1496
     44 C          22.0956   74.0014    5.4218 C.3     1  UNL1        0.1693
     45 O          22.6358   73.0551    6.3463 O.3     1  UNL1       -0.3794
     46 H          22.2365   73.2445    7.2061 H       1  UNL1        0.2105
@<TRIPOS>BOND
     1    29    30    1
     2    29    28    1
     3    29    36    1
     4    30    31    1
     5    30    41    1
     6    31    32    1
     7    31    34    1
     8    32    33    1
     9    32    35    1
    10    33    44    1
    11    33    36    1
    12    44    45    1
    13    39    40    1
    14    39    41   am
    15    39    42    2
    16    41    43    1
    17    28    25    1
    18    34    37    1
    19    35    38    1
    20    45    46    1
    21    15    16   ar
    22    15    20   ar
    23    15     6    1
    24    16    17   ar
    25    16    21    2
    26    17    18   ar
    27    17    23    1
    28    18    19   ar
    29    18    22    2
    30    19    20   ar
    31     6     7    1
    32     6    11    1
    33     7     8    1
    34     7     9    1
    35     8    13    1
    36     9    10    1
    37     9    12    1
    38    10    11    1
    39    10     5    1
    40    12    14    1
    41     5     4    1
    42     4     1    1
    43     1     2    2
    44     1     3    1
    45     1    24    1
    46    24    25    1
    47    25    26    2
    48    25    27    1
@<TRIPOS>MOLECULE
UD1
 46 48 0 0 0
SMALL
GASTEIGER

@<TRIPOS>ATOM
      1 P          23.2255   71.7905   -3.3354 P.3     1  UNL1        0.2189
      2 O          24.2551   70.7724   -3.0320 O.2     1  UNL1       -0.5170
      3 O          23.7503   72.7485   -4.5184 O.3     1  UNL1       -0.4371
      4 O          22.9395   72.6726   -2.0190 O.3     1  UNL1       -0.3112
      5 C          22.8228   71.7598   -0.9265 C.3     1  UNL1        0.1811
      6 C          24.4774   73.0275    2.0031 C.3     1  UNL1        0.2383
      7 C          24.6010   74.1690    0.9629 C.3     1  UNL1        0.1895
      8 O          24.6216   75.4448    1.6041 O.3     1  UNL1       -0.3779
      9 C          23.3065   73.9901    0.1278 C.3     1  UNL1        0.1713
     10 C          22.8887   72.5308    0.3928 C.3     1  UNL1        0.1764
     11 O          23.8845   71.9478    1.2506 O.3     1  UNL1       -0.3308
     12 O          22.2946   74.8958    0.5733 O.3     1  UNL1       -0.3794
     13 H          24.7001   76.1085    0.9050 H       1  UNL1        0.2106
     14 H          22.6390   75.7885    0.4368 H       1  UNL1        0.2105
     15 N          25.7950   72.6412    2.5093 N.ar    1  UNL1       -0.2551
     16 C          26.3021   71.4362    2.1958 C.ar    1  UNL1        0.3323
     17 N          27.5132   71.0560    2.6441 N.ar    1  UNL1       -0.2743
     18 C          28.2372   71.8803    3.4278 C.ar    1  UNL1        0.2626
     19 C          27.7127   73.1493    3.7705 C.ar    1  UNL1        0.0795
     20 C          26.4977   73.5075    3.3027 C.ar    1  UNL1        0.0869
     21 O          25.6612   70.6817    1.4898 O.2     1  UNL1       -0.2464
     22 O          29.3302   71.5356    3.8377 O.2     1  UNL1       -0.2670
     23 H          27.8656   70.1851    2.4042 H       1  UNL1        0.1734
     24 O          21.8682   71.0602   -3.7972 O.3     1  UNL1       -0.2703
     25 P          21.1170   72.0676   -4.8022 P.3     1  UNL1        0.2208
     26 O          21.6429   71.8805   -6.1723 O.2     1  UNL1       -0.5170
     27 O          21.3735   73.5860   -4.3323 O.3     1  UNL1       -0.4371
     28 O          19.5367   71.7626   -4.7878 O.3     1  UNL1       -0.2865
     29 C          19.3817   70.3660   -5.0456 C.3     1  UNL1        0.2611
     30 C          18.3570   70.1695   -6.1643 C.3     1  UNL1        0.1582
     31 C          17.0231   70.7923   -5.7372 C.3     1  UNL1        0.1625
     32 C          16.6234   70.2100   -4.3773 C.3     1  UNL1        0.1686
     33 C          17.7780   70.4062   -3.3924 C.3     1  UNL1        0.1760
     34 O          16.0193   70.4858   -6.7067 O.3     1  UNL1       -0.3801
     35 O          15.4601   70.8831   -3.8924 O.3     1  UNL1       -0.3794
     36 O          18.9338   69.7121   -3.8601 O.3     1  UNL1       -0.3263
     37 H          15.1993   70.8960   -6.3991 H       1  UNL1        0.2105
     38 H          15.2442   70.4870   -3.0362 H       1  UNL1        0.2105
     39 C          18.6798   70.2151   -8.5784 C.2     1  UNL1        0.2231
     40 C          19.1715   70.8865   -9.8353 C.3     1  UNL1        0.0946
     41 N          18.8341   70.8215   -7.3856 N.am    1  UNL1       -0.2994
     42 O          18.1457   69.1284   -8.6407 O.2     1  UNL1       -0.2751
     43 H          19.2617   71.6911   -7.3355 H       1  UNL1        0.1496
     44 C          17.3765   69.8569   -2.0219 C.3     1  UNL1        0.1693
     45 O          16.3518   68.8741   -2.1837 O.3     1  UNL1       -0.3794
     46 H          16.1282   68.5548   -1.2990 H       1  UNL1        0.2105
@<TRIPOS>BOND
     1    29    30    1
     2    29    28    1
     3    29    36    1
     4    30    31    1
     5    30    41    1
     6    31    32    1
     7    31    34    1
     8    32    33    1
     9    32    35    1
    10    33    44    1
    11    33    36    1
    12    44    45    1
    13    39    40    1
    14    39    41   am
    15    39    42    2
    16    41    43    1
    17    28    25    1
    18    34    37    1
    19    35    38    1
    20    45    46    1
    21    15    16   ar
    22    15    20   ar
    23    15     6    1
    24    16    17   ar
    25    16    21    2
    26    17    18   ar
    27    17    23    1
    28    18    19   ar
    29    18    22    2
    30    19    20   ar
    31     6     7    1
    32     6    11    1
    33     7     8    1
    34     7     9    1
    35     8    13    1
    36     9    10    1
    37     9    12    1
    38    10    11    1
    39    10     5    1
    40    12    14    1
    41     5     4    1
    42     4     1    1
    43     1     2    2
    44     1     3    1
    45     1    24    1
    46    24    25    1
    47    25    26    2
    48    25    27    1
@<TRIPOS>MOLECULE
UD1
 46 48 0 0 0
SMALL
GASTEIGER

@<TRIPOS>ATOM
      1 P          16.3873   69.5718   -2.7884 P.3     1  UNL1        0.2189
      2 O          15.8440   69.2117   -4.1165 O.2     1  UNL1       -0.5170
      3 O          17.0178   68.2633   -2.0936 O.3     1  UNL1       -0.4371
      4 O          15.2030   70.1511   -1.8639 O.3     1  UNL1       -0.3112
      5 C          14.8829   69.1326   -0.9148 C.3     1  UNL1        0.1811
      6 C          11.9296   68.2940    0.9566 C.3     1  UNL1        0.2383
      7 C          12.3757   69.6631    1.5282 C.3     1  UNL1        0.1895
      8 O          11.2515   70.4194    1.9793 O.3     1  UNL1       -0.3779
      9 C          13.0338   70.3326    0.2938 C.3     1  UNL1        0.1713
     10 C          13.3798   69.1511   -0.6329 C.3     1  UNL1        0.1764
     11 O          12.9951   67.9444    0.0477 O.3     1  UNL1       -0.3308
     12 O          12.1142   71.2230   -0.3421 O.3     1  UNL1       -0.3794
     13 H          11.5958   71.2558    2.3219 H       1  UNL1        0.2106
     14 H          11.8911   71.9040    0.3064 H       1  UNL1        0.2105
     15 N          11.8136   67.2987    2.0231 N.ar    1  UNL1       -0.2551
     16 C          10.6535   67.1690    2.6900 C.ar    1  UNL1        0.3323
     17 N          10.5170   66.2593    3.6729 N.ar    1  UNL1       -0.2743
     18 C          11.5523   65.4649    4.0120 C.ar    1  UNL1        0.2626
     19 C          12.7811   65.5950    3.3221 C.ar    1  UNL1        0.0795
     20 C          12.8889   66.5120    2.3368 C.ar    1  UNL1        0.0869
     21 O           9.7106   67.8782    2.3957 O.2     1  UNL1       -0.2464
     22 O          11.4315   64.6454    4.9037 O.2     1  UNL1       -0.2670
     23 H           9.6716   66.1762    4.1402 H       1  UNL1        0.1734
     24 O          17.5294   70.6918   -2.9614 O.3     1  UNL1       -0.2703
     25 P          18.6397   70.0749   -3.9492 P.3     1  UNL1        0.2208
     26 O          18.8965   68.6646   -3.5831 O.2     1  UNL1       -0.5170
     27 O          20.0041   70.9195   -3.8185 O.3     1  UNL1       -0.4371
     28 O          18.1089   70.1470   -5.4670 O.3     1  UNL1       -0.2865
     29 C          18.2335   71.5074   -5.8854 C.3     1  UNL1        0.2611
     30 C          16.9107   71.9702   -6.4987 C.3     1  UNL1        0.1582
     31 C          16.5669   71.0674   -7.6888 C.3     1  UNL1        0.1625
     32 C          17.7600   71.0482   -8.6502 C.3     1  UNL1        0.1686
     33 C          19.0183   70.6519   -7.8750 C.3     1  UNL1        0.1760
     34 O          15.4145   71.5790   -8.3607 O.3     1  UNL1       -0.3801
     35 O          17.5197   70.0995   -9.6913 O.3     1  UNL1       -0.3794
     36 O          19.2768   71.6124   -6.8517 O.3     1  UNL1       -0.3263
     37 H          15.2342   70.9821   -9.1000 H       1  UNL1        0.2105
     38 H          18.2937   70.1192  -10.2718 H       1  UNL1        0.2105
     39 C          15.4725   72.9840   -4.8140 C.2     1  UNL1        0.2231
     40 C          14.3792   72.8946   -3.7801 C.3     1  UNL1        0.0946
     41 N          15.8484   71.8840   -5.4945 N.am    1  UNL1       -0.2994
     42 O          16.0144   74.0463   -5.0330 O.2     1  UNL1       -0.2751
     43 H          15.4150   71.0337   -5.3193 H       1  UNL1        0.1496
     44 C          20.2102   70.5981   -8.8330 C.3     1  UNL1        0.1693
     45 O          19.8594   71.2288  -10.0663 O.3     1  UNL1       -0.3794
     46 H          20.6356   71.1730  -10.6399 H       1  UNL1        0.2105
@<TRIPOS>BOND
     1    29    30    1
     2    29    28    1
     3    29    36    1
     4    30    31    1
     5    30    41    1
     6    31    32    1
     7    31    34    1
     8    32    33    1
     9    32    35    1
    10    33    44    1
    11    33    36    1
    12    44    45    1
    13    39    40    1
    14    39    41   am
    15    39    42    2
    16    41    43    1
    17    28    25    1
    18    34    37    1
    19    35    38    1
    20    45    46    1
    21    15    16   ar
    22    15    20   ar
    23    15     6    1
    24    16    17   ar
    25    16    21    2
    26    17    18   ar
    27    17    23    1
    28    18    19   ar
    29    18    22    2
    30    19    20   ar
    31     6     7    1
    32     6    11    1
    33     7     8    1
    34     7     9    1
    35     8    13    1
    36     9    10    1
    37     9    12    1
    38    10    11    1
    39    10     5    1
    40    12    14    1
    41     5     4    1
    42     4     1    1
    43     1     2    2
    44     1     3    1
    45     1    24    1
    46    24    25    1
    47    25    26    2
    48    25    27    1
