@<TRIPOS>MOLECULE
GDU
 43 45 0 0 0
SMALL
GASTEIGER

@<TRIPOS>ATOM
      1 P          22.5789   71.6264   -2.2069 P.3     1  UNL1        0.2189
      2 O          23.1802   71.4623   -3.5489 O.2     1  UNL1       -0.5170
      3 O          22.8313   73.1290   -1.6859 O.3     1  UNL1       -0.4371
      4 O          20.9973   71.3455   -2.2891 O.3     1  UNL1       -0.3112
      5 C          20.4124   72.4651   -2.9561 C.3     1  UNL1        0.1811
      6 C          18.1107   71.1721   -5.3969 C.3     1  UNL1        0.2383
      7 C          18.4644   69.9507   -4.5103 C.3     1  UNL1        0.1895
      8 O          17.3674   69.0370   -4.4398 O.3     1  UNL1       -0.3779
      9 C          18.7217   70.6135   -3.1320 C.3     1  UNL1        0.1713
     10 C          19.0245   72.0840   -3.4745 C.3     1  UNL1        0.1764
     11 O          18.9867   72.2093   -4.9067 O.3     1  UNL1       -0.3308
     12 O          17.5604   70.5142   -2.3053 O.3     1  UNL1       -0.3794
     13 H          17.6512   68.3035   -3.8766 H       1  UNL1        0.2106
     14 H          17.3885   69.5717   -2.1759 H       1  UNL1        0.2105
     15 N          18.3871   70.8868   -6.8058 N.ar    1  UNL1       -0.2551
     16 C          17.3677   70.6563   -7.6520 C.ar    1  UNL1        0.3323
     17 N          17.5944   70.3951   -8.9529 N.ar    1  UNL1       -0.2743
     18 C          18.8540   70.3506   -9.4281 C.ar    1  UNL1        0.2626
     19 C          19.9379   70.5857   -8.5471 C.ar    1  UNL1        0.0795
     20 C          19.6822   70.8495   -7.2481 C.ar    1  UNL1        0.0869
     21 O          16.2261   70.6936   -7.2381 O.2     1  UNL1       -0.2464
     22 O          19.0604   70.1095  -10.6044 O.2     1  UNL1       -0.2670
     23 H          16.8465   70.2354   -9.5503 H       1  UNL1        0.1734
     24 O          23.2579   70.5842   -1.1846 O.3     1  UNL1       -0.2703
     25 P          22.3866   70.6224    0.1680 P.3     1  UNL1        0.2208
     26 O          20.9879   70.2479   -0.1358 O.2     1  UNL1       -0.5170
     27 O          23.0015   69.5810    1.2317 O.3     1  UNL1       -0.4371
     28 O          22.4230   72.1065    0.7893 O.3     1  UNL1       -0.2858
     29 C          21.2145   72.2754    1.5314 C.3     1  UNL1        0.2704
     30 C          20.5328   73.5765    1.1051 C.3     1  UNL1        0.1967
     31 C          21.4895   74.7461    1.3560 C.3     1  UNL1        0.1715
     32 C          21.9485   74.6988    2.8178 C.3     1  UNL1        0.1694
     33 C          22.5251   73.3121    3.1138 C.3     1  UNL1        0.1761
     34 O          20.2064   73.5128   -0.2844 O.3     1  UNL1       -0.3775
     35 O          20.8158   75.9806    1.1015 O.3     1  UNL1       -0.3794
     36 O          20.8356   74.9521    3.6765 O.3     1  UNL1       -0.3794
     37 O          21.5164   72.3209    2.9240 O.3     1  UNL1       -0.3258
     38 H          19.6100   72.7601   -0.3967 H       1  UNL1        0.2106
     39 H          20.5356   75.9612    0.1777 H       1  UNL1        0.2105
     40 H          20.5025   75.8305    3.4511 H       1  UNL1        0.2105
     41 C          23.0180   73.2652    4.5619 C.3     1  UNL1        0.1693
     42 O          22.0424   72.6111    5.3752 O.3     1  UNL1       -0.3794
     43 H          22.3909   72.6018    6.2773 H       1  UNL1        0.2105
@<TRIPOS>BOND
     1    15    16   ar
     2    15    20   ar
     3    15     6    1
     4    16    17   ar
     5    16    21    2
     6    17    18   ar
     7    17    23    1
     8    18    19   ar
     9    18    22    2
    10    19    20   ar
    11     6     7    1
    12     6    11    1
    13     7     8    1
    14     7     9    1
    15     8    13    1
    16     9    10    1
    17     9    12    1
    18    10    11    1
    19    10     5    1
    20    12    14    1
    21     5     4    1
    22     4     1    1
    23     1     2    2
    24     1     3    1
    25     1    24    1
    26    24    25    1
    27    25    26    2
    28    25    27    1
    29    25    28    1
    30    28    29    1
    31    29    30    1
    32    29    37    1
    33    30    31    1
    34    30    34    1
    35    31    32    1
    36    31    35    1
    37    32    33    1
    38    32    36    1
    39    33    41    1
    40    33    37    1
    41    41    42    1
    42    34    38    1
    43    35    39    1
    44    36    40    1
    45    42    43    1
@<TRIPOS>MOLECULE
GDU
 43 45 0 0 0
SMALL
GASTEIGER

@<TRIPOS>ATOM
      1 P          22.1171   71.6407   -2.5858 P.3     1  UNL1        0.2189
      2 O          22.4398   70.9327   -3.8444 O.2     1  UNL1       -0.5170
      3 O          22.4999   73.1979   -2.7328 O.3     1  UNL1       -0.4371
      4 O          20.5443   71.5014   -2.2793 O.3     1  UNL1       -0.3112
      5 C          19.9336   72.7274   -2.6847 C.3     1  UNL1        0.1811
      6 C          17.8063   71.5351   -5.3267 C.3     1  UNL1        0.2383
      7 C          17.9718   70.3179   -4.3812 C.3     1  UNL1        0.1895
      8 O          16.8070   69.4898   -4.4073 O.3     1  UNL1       -0.3779
      9 C          18.1342   71.0006   -2.9981 C.3     1  UNL1        0.1713
     10 C          18.5821   72.4341   -3.3387 C.3     1  UNL1        0.1764
     11 O          18.7031   72.5192   -4.7692 O.3     1  UNL1       -0.3308
     12 O          16.8890   71.0116   -2.2971 O.3     1  UNL1       -0.3794
     13 H          16.9740   68.7545   -3.8013 H       1  UNL1        0.2106
     14 H          16.6332   70.0885   -2.1661 H       1  UNL1        0.2105
     15 N          18.2051   71.1885   -6.6919 N.ar    1  UNL1       -0.2551
     16 C          17.2793   70.7633   -7.5695 C.ar    1  UNL1        0.3323
     17 N          17.6190   70.4416   -8.8316 N.ar    1  UNL1       -0.2743
     18 C          18.9011   70.5318   -9.2347 C.ar    1  UNL1        0.2626
     19 C          19.8880   70.9726   -8.3194 C.ar    1  UNL1        0.0795
     20 C          19.5193   71.2929   -7.0609 C.ar    1  UNL1        0.0869
     21 O          16.1187   70.6773   -7.2206 O.2     1  UNL1       -0.2464
     22 O          19.2103   70.2363  -10.3755 O.2     1  UNL1       -0.2670
     23 H          16.9370   70.1406   -9.4530 H       1  UNL1        0.1734
     24 O          22.9602   70.9941   -1.3761 O.3     1  UNL1       -0.2703
     25 P          21.9041   70.2496   -0.4168 P.3     1  UNL1        0.2208
     26 O          20.8604   69.6017   -1.2415 O.2     1  UNL1       -0.5170
     27 O          22.6676   69.1323    0.4566 O.3     1  UNL1       -0.4371
     28 O          21.2213   71.3242    0.5676 O.3     1  UNL1       -0.2858
     29 C          22.2177   72.3018    0.8700 C.3     1  UNL1        0.2704
     30 C          22.5220   72.2719    2.3686 C.3     1  UNL1        0.1967
     31 C          21.2325   72.5559    3.1450 C.3     1  UNL1        0.1715
     32 C          20.6278   73.8662    2.6282 C.3     1  UNL1        0.1694
     33 C          20.4652   73.7743    1.1089 C.3     1  UNL1        0.1761
     34 O          23.0258   70.9845    2.7291 O.3     1  UNL1       -0.3775
     35 O          21.5276   72.6771    4.5381 O.3     1  UNL1       -0.3794
     36 O          21.4935   74.9539    2.9559 O.3     1  UNL1       -0.3794
     37 O          21.7420   73.5933    0.4983 O.3     1  UNL1       -0.3258
     38 H          23.8313   70.8454    2.2125 H       1  UNL1        0.2106
     39 H          21.9154   71.8376    4.8161 H       1  UNL1        0.2105
     40 H          21.5710   74.9697    3.9188 H       1  UNL1        0.2105
     41 C          19.8301   75.0650    0.5867 C.3     1  UNL1        0.1693
     42 O          20.8574   76.0059    0.2698 O.3     1  UNL1       -0.3794
     43 H          20.4163   76.8028   -0.0555 H       1  UNL1        0.2105
@<TRIPOS>BOND
     1    15    16   ar
     2    15    20   ar
     3    15     6    1
     4    16    17   ar
     5    16    21    2
     6    17    18   ar
     7    17    23    1
     8    18    19   ar
     9    18    22    2
    10    19    20   ar
    11     6     7    1
    12     6    11    1
    13     7     8    1
    14     7     9    1
    15     8    13    1
    16     9    10    1
    17     9    12    1
    18    10    11    1
    19    10     5    1
    20    12    14    1
    21     5     4    1
    22     4     1    1
    23     1     2    2
    24     1     3    1
    25     1    24    1
    26    24    25    1
    27    25    26    2
    28    25    27    1
    29    25    28    1
    30    28    29    1
    31    29    30    1
    32    29    37    1
    33    30    31    1
    34    30    34    1
    35    31    32    1
    36    31    35    1
    37    32    33    1
    38    32    36    1
    39    33    41    1
    40    33    37    1
    41    41    42    1
    42    34    38    1
    43    35    39    1
    44    36    40    1
    45    42    43    1
@<TRIPOS>MOLECULE
GDU
 43 45 0 0 0
SMALL
GASTEIGER

@<TRIPOS>ATOM
      1 P          22.3196   74.2373   -5.6520 P.3     1  UNL1        0.2189
      2 O          22.7657   72.9345   -6.1936 O.2     1  UNL1       -0.5170
      3 O          23.4311   75.3587   -5.9682 O.3     1  UNL1       -0.4371
      4 O          20.9258   74.6550   -6.3372 O.3     1  UNL1       -0.3112
      5 C          20.9699   74.1842   -7.6852 C.3     1  UNL1        0.1811
      6 C          18.4879   71.7348   -6.8093 C.3     1  UNL1        0.2383
      7 C          17.8216   73.0966   -6.4863 C.3     1  UNL1        0.1895
      8 O          16.4049   73.0260   -6.6634 O.3     1  UNL1       -0.3779
      9 C          18.4651   74.0319   -7.5429 C.3     1  UNL1        0.1713
     10 C          19.7535   73.2975   -7.9576 C.3     1  UNL1        0.1764
     11 O          19.8377   72.0973   -7.1698 O.3     1  UNL1       -0.3308
     12 O          17.5924   74.1961   -8.6624 O.3     1  UNL1       -0.3794
     13 H          16.0529   73.9007   -6.4472 H       1  UNL1        0.2106
     14 H          16.7827   74.6057   -8.3287 H       1  UNL1        0.2105
     15 N          18.4844   70.8643   -5.6324 N.ar    1  UNL1       -0.2551
     16 C          17.4555   70.0229   -5.4284 C.ar    1  UNL1        0.3323
     17 N          17.4295   69.2095   -4.3562 N.ar    1  UNL1       -0.2743
     18 C          18.4350   69.2331   -3.4603 C.ar    1  UNL1        0.2626
     19 C          19.5226   70.1185   -3.6592 C.ar    1  UNL1        0.0795
     20 C          19.5255   70.9203   -4.7453 C.ar    1  UNL1        0.0869
     21 O          16.5415   69.9900   -6.2282 O.2     1  UNL1       -0.2464
     22 O          18.4101   68.5006   -2.4870 O.2     1  UNL1       -0.2670
     23 H          16.6811   68.6054   -4.2270 H       1  UNL1        0.1734
     24 O          22.1206   74.1152   -4.0589 O.3     1  UNL1       -0.2703
     25 P          23.3703   73.2718   -3.4958 P.3     1  UNL1        0.2208
     26 O          23.2723   71.8722   -3.9655 O.2     1  UNL1       -0.5170
     27 O          24.7422   73.9227   -4.0326 O.3     1  UNL1       -0.4371
     28 O          23.3574   73.3011   -1.8867 O.3     1  UNL1       -0.2858
     29 C          21.9907   73.4008   -1.4844 C.3     1  UNL1        0.2704
     30 C          21.8965   74.2306   -0.2030 C.3     1  UNL1        0.1967
     31 C          22.7341   73.5583    0.8891 C.3     1  UNL1        0.1715
     32 C          22.2848   72.0989    1.0226 C.3     1  UNL1        0.1694
     33 C          22.3516   71.4298   -0.3525 C.3     1  UNL1        0.1761
     34 O          22.3943   75.5472   -0.4477 O.3     1  UNL1       -0.3775
     35 O          22.5392   74.2386    2.1308 O.3     1  UNL1       -0.3794
     36 O          20.9453   72.0545    1.5163 O.3     1  UNL1       -0.3794
     37 O          21.4682   72.0944   -1.2546 O.3     1  UNL1       -0.3258
     38 H          21.8435   75.9287   -1.1448 H       1  UNL1        0.2106
     39 H          22.8227   75.1518    1.9970 H       1  UNL1        0.2105
     40 H          20.9501   72.4908    2.3783 H       1  UNL1        0.2105
     41 C          21.9375   69.9621   -0.2243 C.3     1  UNL1        0.1693
     42 O          22.9469   69.2437    0.4871 O.3     1  UNL1       -0.3794
     43 H          22.6478   68.3259    0.5467 H       1  UNL1        0.2105
@<TRIPOS>BOND
     1    15    16   ar
     2    15    20   ar
     3    15     6    1
     4    16    17   ar
     5    16    21    2
     6    17    18   ar
     7    17    23    1
     8    18    19   ar
     9    18    22    2
    10    19    20   ar
    11     6     7    1
    12     6    11    1
    13     7     8    1
    14     7     9    1
    15     8    13    1
    16     9    10    1
    17     9    12    1
    18    10    11    1
    19    10     5    1
    20    12    14    1
    21     5     4    1
    22     4     1    1
    23     1     2    2
    24     1     3    1
    25     1    24    1
    26    24    25    1
    27    25    26    2
    28    25    27    1
    29    25    28    1
    30    28    29    1
    31    29    30    1
    32    29    37    1
    33    30    31    1
    34    30    34    1
    35    31    32    1
    36    31    35    1
    37    32    33    1
    38    32    36    1
    39    33    41    1
    40    33    37    1
    41    41    42    1
    42    34    38    1
    43    35    39    1
    44    36    40    1
    45    42    43    1
@<TRIPOS>MOLECULE
GDU
 43 45 0 0 0
SMALL
GASTEIGER

@<TRIPOS>ATOM
      1 P          22.5837   72.7980   -3.3982 P.3     1  UNL1        0.2189
      2 O          23.9121   72.7716   -4.0496 O.2     1  UNL1       -0.5170
      3 O          21.7888   74.1221   -3.8540 O.3     1  UNL1       -0.4371
      4 O          21.7473   71.4942   -3.8312 O.3     1  UNL1       -0.3112
      5 C          20.7918   71.2533   -2.7971 C.3     1  UNL1        0.1811
      6 C          18.2704   71.0914   -5.3551 C.3     1  UNL1        0.2383
      7 C          18.1350   69.7501   -4.5899 C.3     1  UNL1        0.1895
      8 O          16.7832   69.2859   -4.6096 O.3     1  UNL1       -0.3779
      9 C          18.5612   70.1510   -3.1536 C.3     1  UNL1        0.1713
     10 C          19.3787   71.4409   -3.3521 C.3     1  UNL1        0.1764
     11 O          19.4394   71.6991   -4.7656 O.3     1  UNL1       -0.3308
     12 O          17.4114   70.3994   -2.3423 O.3     1  UNL1       -0.3794
     13 H          16.7675   68.4521   -4.1194 H       1  UNL1        0.2106
     14 H          16.9113   69.5728   -2.3047 H       1  UNL1        0.2105
     15 N          18.4780   70.8535   -6.7845 N.ar    1  UNL1       -0.2551
     16 C          17.4166   70.7193   -7.5992 C.ar    1  UNL1        0.3323
     17 N          17.5799   70.5036   -8.9178 N.ar    1  UNL1       -0.2743
     18 C          18.8165   70.4083   -9.4432 C.ar    1  UNL1        0.2626
     19 C          19.9438   70.5419   -8.5961 C.ar    1  UNL1        0.0795
     20 C          19.7516   70.7620   -7.2781 C.ar    1  UNL1        0.0869
     21 O          16.2950   70.8033   -7.1398 O.2     1  UNL1       -0.2464
     22 O          18.9653   70.2083  -10.6358 O.2     1  UNL1       -0.2670
     23 H          16.8026   70.4134   -9.4918 H       1  UNL1        0.1734
     24 O          22.7714   72.8101   -1.7991 O.3     1  UNL1       -0.2703
     25 P          22.3279   74.2704   -1.2884 P.3     1  UNL1        0.2208
     26 O          23.1830   75.2962   -1.9252 O.2     1  UNL1       -0.5170
     27 O          20.7893   74.5332   -1.6855 O.3     1  UNL1       -0.4371
     28 O          22.4896   74.3529    0.3107 O.3     1  UNL1       -0.2858
     29 C          21.2622   73.8912    0.8763 C.3     1  UNL1        0.2704
     30 C          21.0291   74.5824    2.2206 C.3     1  UNL1        0.1967
     31 C          22.2048   74.2709    3.1519 C.3     1  UNL1        0.1715
     32 C          22.3841   72.7502    3.2228 C.3     1  UNL1        0.1694
     33 C          22.5164   72.1978    1.8014 C.3     1  UNL1        0.1761
     34 O          20.9344   75.9942    2.0228 O.3     1  UNL1       -0.3775
     35 O          21.9331   74.7861    4.4570 O.3     1  UNL1       -0.3794
     36 O          21.2502   72.1648    3.8645 O.3     1  UNL1       -0.3794
     37 O          21.3284   72.4793    1.0630 O.3     1  UNL1       -0.3258
     38 H          20.1880   76.1429    1.4265 H       1  UNL1        0.2106
     39 H          21.8160   75.7399    4.3625 H       1  UNL1        0.2105
     40 H          21.2032   72.5451    4.7513 H       1  UNL1        0.2105
     41 C          22.7303   70.6837    1.8624 C.3     1  UNL1        0.1693
     42 O          21.8572   70.0422    0.9312 O.3     1  UNL1       -0.3794
     43 H          22.0235   69.0921    1.0003 H       1  UNL1        0.2105
@<TRIPOS>BOND
     1    15    16   ar
     2    15    20   ar
     3    15     6    1
     4    16    17   ar
     5    16    21    2
     6    17    18   ar
     7    17    23    1
     8    18    19   ar
     9    18    22    2
    10    19    20   ar
    11     6     7    1
    12     6    11    1
    13     7     8    1
    14     7     9    1
    15     8    13    1
    16     9    10    1
    17     9    12    1
    18    10    11    1
    19    10     5    1
    20    12    14    1
    21     5     4    1
    22     4     1    1
    23     1     2    2
    24     1     3    1
    25     1    24    1
    26    24    25    1
    27    25    26    2
    28    25    27    1
    29    25    28    1
    30    28    29    1
    31    29    30    1
    32    29    37    1
    33    30    31    1
    34    30    34    1
    35    31    32    1
    36    31    35    1
    37    32    33    1
    38    32    36    1
    39    33    41    1
    40    33    37    1
    41    41    42    1
    42    34    38    1
    43    35    39    1
    44    36    40    1
    45    42    43    1
@<TRIPOS>MOLECULE
GDU
 43 45 0 0 0
SMALL
GASTEIGER

@<TRIPOS>ATOM
      1 P          21.9894   70.6833   -0.5152 P.3     1  UNL1        0.2189
      2 O          21.5404   69.3292   -0.1225 O.2     1  UNL1       -0.5170
      3 O          23.1698   70.5626   -1.6038 O.3     1  UNL1       -0.4371
      4 O          20.7548   71.4953   -1.1502 O.3     1  UNL1       -0.3112
      5 C          20.7634   71.2303   -2.5538 C.3     1  UNL1        0.1811
      6 C          18.2724   71.1361   -5.1448 C.3     1  UNL1        0.2383
      7 C          18.1128   69.7847   -4.4023 C.3     1  UNL1        0.1895
      8 O          16.7563   69.3361   -4.4459 O.3     1  UNL1       -0.3779
      9 C          18.5254   70.1587   -2.9548 C.3     1  UNL1        0.1713
     10 C          19.3594   71.4423   -3.1232 C.3     1  UNL1        0.1764
     11 O          19.4406   71.7215   -4.5316 O.3     1  UNL1       -0.3308
     12 O          17.3684   70.4073   -2.1539 O.3     1  UNL1       -0.3794
     13 H          16.7253   68.4950   -3.9689 H       1  UNL1        0.2106
     14 H          16.8589   69.5859   -2.1353 H       1  UNL1        0.2105
     15 N          18.4951   70.9180   -6.5751 N.ar    1  UNL1       -0.2551
     16 C          17.4431   70.8310   -7.4082 C.ar    1  UNL1        0.3323
     17 N          17.6206   70.6343   -8.7279 N.ar    1  UNL1       -0.2743
     18 C          18.8618   70.5111   -9.2362 C.ar    1  UNL1        0.2626
     19 C          19.9792   70.5949   -8.3698 C.ar    1  UNL1        0.0795
     20 C          19.7730   70.7969   -7.0510 C.ar    1  UNL1        0.0869
     21 O          16.3175   70.9407   -6.9643 O.2     1  UNL1       -0.2464
     22 O          19.0232   70.3283  -10.4299 O.2     1  UNL1       -0.2670
     23 H          16.8500   70.5783   -9.3152 H       1  UNL1        0.1734
     24 O          22.5360   71.4638    0.7827 O.3     1  UNL1       -0.2703
     25 P          22.1055   73.0055    0.6158 P.3     1  UNL1        0.2208
     26 O          22.8274   73.5975   -0.5320 O.2     1  UNL1       -0.5170
     27 O          20.5187   73.0941    0.3545 O.3     1  UNL1       -0.4371
     28 O          22.4732   73.8148    1.9574 O.3     1  UNL1       -0.2858
     29 C          22.9146   72.8516    2.9152 C.3     1  UNL1        0.2704
     30 C          21.7433   72.4549    3.8152 C.3     1  UNL1        0.1967
     31 C          21.2061   73.7070    4.5153 C.3     1  UNL1        0.1715
     32 C          22.3687   74.4066    5.2283 C.3     1  UNL1        0.1694
     33 C          23.4926   74.6573    4.2198 C.3     1  UNL1        0.1761
     34 O          20.7095   71.8665    3.0238 O.3     1  UNL1       -0.3775
     35 O          20.2097   73.3334    5.4693 O.3     1  UNL1       -0.3794
     36 O          22.8475   73.5777    6.2883 O.3     1  UNL1       -0.3794
     37 O          23.9619   73.4129    3.7030 O.3     1  UNL1       -0.3258
     38 H          21.0934   71.0883    2.5973 H       1  UNL1        0.2106
     39 H          19.5066   72.8880    4.9798 H       1  UNL1        0.2105
     40 H          22.1071   73.4422    6.8939 H       1  UNL1        0.2105
     41 C          24.6451   75.3866    4.9139 C.3     1  UNL1        0.1693
     42 O          24.2504   75.7472    6.2387 O.3     1  UNL1       -0.3794
     43 H          25.0029   76.2025    6.6408 H       1  UNL1        0.2105
@<TRIPOS>BOND
     1    15    16   ar
     2    15    20   ar
     3    15     6    1
     4    16    17   ar
     5    16    21    2
     6    17    18   ar
     7    17    23    1
     8    18    19   ar
     9    18    22    2
    10    19    20   ar
    11     6     7    1
    12     6    11    1
    13     7     8    1
    14     7     9    1
    15     8    13    1
    16     9    10    1
    17     9    12    1
    18    10    11    1
    19    10     5    1
    20    12    14    1
    21     5     4    1
    22     4     1    1
    23     1     2    2
    24     1     3    1
    25     1    24    1
    26    24    25    1
    27    25    26    2
    28    25    27    1
    29    25    28    1
    30    28    29    1
    31    29    30    1
    32    29    37    1
    33    30    31    1
    34    30    34    1
    35    31    32    1
    36    31    35    1
    37    32    33    1
    38    32    36    1
    39    33    41    1
    40    33    37    1
    41    41    42    1
    42    34    38    1
    43    35    39    1
    44    36    40    1
    45    42    43    1
@<TRIPOS>MOLECULE
GDU
 43 45 0 0 0
SMALL
GASTEIGER

@<TRIPOS>ATOM
      1 P          22.9704   73.9949   -3.8937 P.3     1  UNL1        0.2189
      2 O          23.3736   74.9726   -4.9286 O.2     1  UNL1       -0.5170
      3 O          23.9772   72.7384   -3.9213 O.3     1  UNL1       -0.4371
      4 O          23.0232   74.6930   -2.4457 O.3     1  UNL1       -0.3112
      5 C          22.1351   73.9600   -1.6003 C.3     1  UNL1        0.1811
      6 C          23.0537   72.3592    1.4852 C.3     1  UNL1        0.2383
      7 C          21.9712   71.4333    0.8737 C.3     1  UNL1        0.1895
      8 O          22.1956   70.0715    1.2458 O.3     1  UNL1       -0.3779
      9 C          22.1933   71.6347   -0.6479 C.3     1  UNL1        0.1713
     10 C          22.9373   72.9797   -0.7427 C.3     1  UNL1        0.1764
     11 O          23.0689   73.4943    0.5937 O.3     1  UNL1       -0.3308
     12 O          22.9908   70.5755   -1.1809 O.3     1  UNL1       -0.3794
     13 H          21.4913   69.5506    0.8354 H       1  UNL1        0.2106
     14 H          22.4986   69.7556   -1.0389 H       1  UNL1        0.2105
     15 N          22.6783   72.7714    2.8387 N.ar    1  UNL1       -0.2551
     16 C          21.4395   72.5145    3.2946 C.ar    1  UNL1        0.3323
     17 N          21.0700   72.8798    4.5363 N.ar    1  UNL1       -0.2743
     18 C          21.9375   73.5209    5.3430 C.ar    1  UNL1        0.2626
     19 C          23.2439   73.8032    4.8742 C.ar    1  UNL1        0.0795
     20 C          23.5897   73.4221    3.6261 C.ar    1  UNL1        0.0869
     21 O          20.6462   71.9365    2.5786 O.2     1  UNL1       -0.2464
     22 O          21.6025   73.8561    6.4654 O.2     1  UNL1       -0.2670
     23 H          20.1733   72.6825    4.8504 H       1  UNL1        0.1734
     24 O          21.4720   73.4867   -4.1916 O.3     1  UNL1       -0.2703
     25 P          21.3516   73.2975   -5.7853 P.3     1  UNL1        0.2208
     26 O          20.9396   74.5769   -6.4039 O.2     1  UNL1       -0.5170
     27 O          22.7789   72.8489   -6.3815 O.3     1  UNL1       -0.4371
     28 O          20.2554   72.1652   -6.1111 O.3     1  UNL1       -0.2858
     29 C          19.0713   72.8431   -6.5332 C.3     1  UNL1        0.2704
     30 C          17.8493   72.1745   -5.9017 C.3     1  UNL1        0.1967
     31 C          17.8107   70.7033   -6.3264 C.3     1  UNL1        0.1715
     32 C          17.8749   70.6330   -7.8563 C.3     1  UNL1        0.1694
     33 C          19.0972   71.4175   -8.3397 C.3     1  UNL1        0.1761
     34 O          17.9383   72.2612   -4.4784 O.3     1  UNL1       -0.3775
     35 O          16.5984   70.1023   -5.8662 O.3     1  UNL1       -0.3794
     36 O          16.6871   71.2001   -8.4109 O.3     1  UNL1       -0.3794
     37 O          18.9741   72.7858   -7.9545 O.3     1  UNL1       -0.3258
     38 H          17.9672   73.2021   -4.2575 H       1  UNL1        0.2106
     39 H          16.5954   70.1799   -4.9038 H       1  UNL1        0.2105
     40 H          15.9455   70.6796   -8.0758 H       1  UNL1        0.2105
     41 C          19.1900   71.3250   -9.8645 C.3     1  UNL1        0.1693
     42 O          18.5162   70.1471  -10.3113 O.3     1  UNL1       -0.3794
     43 H          18.5973   70.1268  -11.2748 H       1  UNL1        0.2105
@<TRIPOS>BOND
     1    15    16   ar
     2    15    20   ar
     3    15     6    1
     4    16    17   ar
     5    16    21    2
     6    17    18   ar
     7    17    23    1
     8    18    19   ar
     9    18    22    2
    10    19    20   ar
    11     6     7    1
    12     6    11    1
    13     7     8    1
    14     7     9    1
    15     8    13    1
    16     9    10    1
    17     9    12    1
    18    10    11    1
    19    10     5    1
    20    12    14    1
    21     5     4    1
    22     4     1    1
    23     1     2    2
    24     1     3    1
    25     1    24    1
    26    24    25    1
    27    25    26    2
    28    25    27    1
    29    25    28    1
    30    28    29    1
    31    29    30    1
    32    29    37    1
    33    30    31    1
    34    30    34    1
    35    31    32    1
    36    31    35    1
    37    32    33    1
    38    32    36    1
    39    33    41    1
    40    33    37    1
    41    41    42    1
    42    34    38    1
    43    35    39    1
    44    36    40    1
    45    42    43    1
@<TRIPOS>MOLECULE
GDU
 43 45 0 0 0
SMALL
GASTEIGER

@<TRIPOS>ATOM
      1 P          22.0474   73.9203   -6.8694 P.3     1  UNL1        0.2189
      2 O          22.7423   72.6318   -7.0849 O.2     1  UNL1       -0.5170
      3 O          23.1315   75.1088   -6.7963 O.3     1  UNL1       -0.4371
      4 O          21.0328   74.1936   -8.0870 O.3     1  UNL1       -0.3112
      5 C          21.1243   73.0684   -8.9623 C.3     1  UNL1        0.1811
      6 C          18.4416   71.2073   -7.4567 C.3     1  UNL1        0.2383
      7 C          17.9763   72.6844   -7.3891 C.3     1  UNL1        0.1895
      8 O          16.5519   72.7745   -7.4683 O.3     1  UNL1       -0.3779
      9 C          18.6400   73.2922   -8.6521 C.3     1  UNL1        0.1713
     10 C          19.7900   72.3202   -8.9751 C.3     1  UNL1        0.1764
     11 O          19.7913   71.3019   -7.9596 O.3     1  UNL1       -0.3308
     12 O          17.7045   73.3470   -9.7308 O.3     1  UNL1       -0.3794
     13 H          16.3289   73.7146   -7.4206 H       1  UNL1        0.2106
     14 H          16.9816   73.9221   -9.4457 H       1  UNL1        0.2105
     15 N          18.4287   70.5987   -6.1254 N.ar    1  UNL1       -0.2551
     16 C          17.3280   69.9563   -5.6965 C.ar    1  UNL1        0.3323
     17 N          17.2913   69.3851   -4.4782 N.ar    1  UNL1       -0.2743
     18 C          18.3596   69.4571   -3.6610 C.ar    1  UNL1        0.2626
     19 C          19.5239   70.1356   -4.0972 C.ar    1  UNL1        0.0795
     20 C          19.5353   70.6958   -5.3254 C.ar    1  UNL1        0.0869
     21 O          16.3567   69.8827   -6.4226 O.2     1  UNL1       -0.2464
     22 O          18.3256   68.9445   -2.5562 O.2     1  UNL1       -0.2670
     23 H          16.4901   68.9217   -4.1866 H       1  UNL1        0.1734
     24 O          21.2247   73.8605   -5.4867 O.3     1  UNL1       -0.2703
     25 P          22.3100   73.8327   -4.2987 P.3     1  UNL1        0.2208
     26 O          23.5360   73.1495   -4.7668 O.2     1  UNL1       -0.5170
     27 O          22.6694   75.3416   -3.8651 O.3     1  UNL1       -0.4371
     28 O          21.7035   73.0425   -3.0347 O.3     1  UNL1       -0.2858
     29 C          22.7832   72.8216   -2.1263 C.3     1  UNL1        0.2704
     30 C          22.9253   71.3224   -1.8591 C.3     1  UNL1        0.1967
     31 C          21.6114   70.7931   -1.2763 C.3     1  UNL1        0.1715
     32 C          21.2405   71.6411   -0.0544 C.3     1  UNL1        0.1694
     33 C          21.2242   73.1171   -0.4594 C.3     1  UNL1        0.1761
     34 O          23.2159   70.6437   -3.0823 O.3     1  UNL1       -0.3775
     35 O          21.7751   69.4284   -0.8848 O.3     1  UNL1       -0.3794
     36 O          22.2033   71.4350    0.9802 O.3     1  UNL1       -0.3794
     37 O          22.5221   73.5085   -0.9045 O.3     1  UNL1       -0.3258
     38 H          24.0449   71.0129   -3.4161 H       1  UNL1        0.2106
     39 H          22.0186   68.9366   -1.6793 H       1  UNL1        0.2105
     40 H          22.1828   70.4941    1.1983 H       1  UNL1        0.2105
     41 C          20.8213   73.9703    0.7455 C.3     1  UNL1        0.1693
     42 O          20.9100   75.3536    0.3996 O.3     1  UNL1       -0.3794
     43 H          20.6480   75.8555    1.1836 H       1  UNL1        0.2105
@<TRIPOS>BOND
     1    15    16   ar
     2    15    20   ar
     3    15     6    1
     4    16    17   ar
     5    16    21    2
     6    17    18   ar
     7    17    23    1
     8    18    19   ar
     9    18    22    2
    10    19    20   ar
    11     6     7    1
    12     6    11    1
    13     7     8    1
    14     7     9    1
    15     8    13    1
    16     9    10    1
    17     9    12    1
    18    10    11    1
    19    10     5    1
    20    12    14    1
    21     5     4    1
    22     4     1    1
    23     1     2    2
    24     1     3    1
    25     1    24    1
    26    24    25    1
    27    25    26    2
    28    25    27    1
    29    25    28    1
    30    28    29    1
    31    29    30    1
    32    29    37    1
    33    30    31    1
    34    30    34    1
    35    31    32    1
    36    31    35    1
    37    32    33    1
    38    32    36    1
    39    33    41    1
    40    33    37    1
    41    41    42    1
    42    34    38    1
    43    35    39    1
    44    36    40    1
    45    42    43    1
@<TRIPOS>MOLECULE
GDU
 43 45 0 0 0
SMALL
GASTEIGER

@<TRIPOS>ATOM
      1 P          22.0836   70.3463   -0.1764 P.3     1  UNL1        0.2189
      2 O          23.0018   71.3839   -0.6958 O.2     1  UNL1       -0.5170
      3 O          22.9379   69.0787    0.3299 O.3     1  UNL1       -0.4371
      4 O          21.2347   70.9460    1.0510 O.3     1  UNL1       -0.3112
      5 C          21.7042   72.2777    1.2672 C.3     1  UNL1        0.1811
      6 C          22.9818   73.9766    4.1670 C.3     1  UNL1        0.2383
      7 C          21.6822   74.7420    3.8087 C.3     1  UNL1        0.1895
      8 O          21.0687   75.2820    4.9814 O.3     1  UNL1       -0.3779
      9 C          20.8051   73.6217    3.1915 C.3     1  UNL1        0.1713
     10 C          21.8190   72.5422    2.7696 C.3     1  UNL1        0.1764
     11 O          23.1322   73.0403    3.0788 O.3     1  UNL1       -0.3308
     12 O          19.8932   73.1081    4.1644 O.3     1  UNL1       -0.3794
     13 H          20.2698   75.7436    4.6908 H       1  UNL1        0.2106
     14 H          19.3252   73.8434    4.4317 H       1  UNL1        0.2105
     15 N          24.1233   74.8914    4.2219 N.ar    1  UNL1       -0.2551
     16 C          24.4321   75.5038    5.3785 C.ar    1  UNL1        0.3323
     17 N          25.4786   76.3467    5.4568 N.ar    1  UNL1       -0.2743
     18 C          26.2313   76.5990    4.3687 C.ar    1  UNL1        0.2626
     19 C          25.9143   75.9656    3.1421 C.ar    1  UNL1        0.0795
     20 C          24.8620   75.1214    3.0925 C.ar    1  UNL1        0.0869
     21 O          23.7625   75.2857    6.3686 O.2     1  UNL1       -0.2464
     22 O          27.1759   77.3656    4.4373 O.2     1  UNL1       -0.2670
     23 H          25.6896   76.7767    6.3008 H       1  UNL1        0.1734
     24 O          21.0813   69.8828   -1.3481 O.3     1  UNL1       -0.2703
     25 P          21.3990   70.8071   -2.6267 P.3     1  UNL1        0.2208
     26 O          21.3530   72.2315   -2.2290 O.2     1  UNL1       -0.5170
     27 O          22.8656   70.4553   -3.1918 O.3     1  UNL1       -0.4371
     28 O          20.3035   70.5336   -3.7735 O.3     1  UNL1       -0.2858
     29 C          19.1071   71.2026   -3.3725 C.3     1  UNL1        0.2704
     30 C          17.9532   70.1996   -3.3286 C.3     1  UNL1        0.1967
     31 C          17.7836   69.5735   -4.7163 C.3     1  UNL1        0.1715
     32 C          17.6311   70.6985   -5.7462 C.3     1  UNL1        0.1694
     33 C          18.8115   71.6632   -5.6079 C.3     1  UNL1        0.1761
     34 O          18.2433   69.1779   -2.3730 O.3     1  UNL1       -0.3775
     35 O          16.6190   68.7453   -4.7303 O.3     1  UNL1       -0.3794
     36 O          16.4072   71.3969   -5.5132 O.3     1  UNL1       -0.3794
     37 O          18.8106   72.2410   -4.3033 O.3     1  UNL1       -0.3258
     38 H          18.3488   69.6172   -1.5182 H       1  UNL1        0.2106
     39 H          16.7535   68.0618   -4.0617 H       1  UNL1        0.2105
     40 H          15.6947   70.7509   -5.6047 H       1  UNL1        0.2105
     41 C          18.6869   72.7722   -6.6552 C.3     1  UNL1        0.1693
     42 O          17.8932   73.8368   -6.1282 O.3     1  UNL1       -0.3794
     43 H          17.8400   74.5136   -6.8170 H       1  UNL1        0.2105
@<TRIPOS>BOND
     1    15    16   ar
     2    15    20   ar
     3    15     6    1
     4    16    17   ar
     5    16    21    2
     6    17    18   ar
     7    17    23    1
     8    18    19   ar
     9    18    22    2
    10    19    20   ar
    11     6     7    1
    12     6    11    1
    13     7     8    1
    14     7     9    1
    15     8    13    1
    16     9    10    1
    17     9    12    1
    18    10    11    1
    19    10     5    1
    20    12    14    1
    21     5     4    1
    22     4     1    1
    23     1     2    2
    24     1     3    1
    25     1    24    1
    26    24    25    1
    27    25    26    2
    28    25    27    1
    29    25    28    1
    30    28    29    1
    31    29    30    1
    32    29    37    1
    33    30    31    1
    34    30    34    1
    35    31    32    1
    36    31    35    1
    37    32    33    1
    38    32    36    1
    39    33    41    1
    40    33    37    1
    41    41    42    1
    42    34    38    1
    43    35    39    1
    44    36    40    1
    45    42    43    1
@<TRIPOS>MOLECULE
GDU
 43 45 0 0 0
SMALL
GASTEIGER

@<TRIPOS>ATOM
      1 P          21.9495   70.3120   -0.3992 P.3     1  UNL1        0.2189
      2 O          22.5951   69.2469    0.3998 O.2     1  UNL1       -0.5170
      3 O          23.0794   71.2786   -1.0173 O.3     1  UNL1       -0.4371
      4 O          21.0999   69.6480   -1.5926 O.3     1  UNL1       -0.3112
      5 C          21.1803   70.5413   -2.7044 C.3     1  UNL1        0.1811
      6 C          18.5301   70.8766   -5.1110 C.3     1  UNL1        0.2383
      7 C          18.2882   69.4925   -4.4561 C.3     1  UNL1        0.1895
      8 O          16.8946   69.1754   -4.4342 O.3     1  UNL1       -0.3779
      9 C          18.8276   69.7144   -3.0191 C.3     1  UNL1        0.1713
     10 C          19.7698   70.9248   -3.1557 C.3     1  UNL1        0.1764
     11 O          19.7868   71.3030   -4.5431 O.3     1  UNL1       -0.3308
     12 O          17.7543   70.0061   -2.1220 O.3     1  UNL1       -0.3794
     13 H          16.8129   68.3066   -4.0167 H       1  UNL1        0.2106
     14 H          17.1696   69.2362   -2.1250 H       1  UNL1        0.2105
     15 N          18.6380   70.7496   -6.5653 N.ar    1  UNL1       -0.2551
     16 C          17.5226   70.6876   -7.3139 C.ar    1  UNL1        0.3323
     17 N          17.5941   70.5744   -8.6533 N.ar    1  UNL1       -0.2743
     18 C          18.7911   70.5111   -9.2674 C.ar    1  UNL1        0.2626
     19 C          19.9745   70.5695   -8.4912 C.ar    1  UNL1        0.0795
     20 C          19.8742   70.6874   -7.1501 C.ar    1  UNL1        0.0869
     21 O          16.4356   70.7439   -6.7741 O.2     1  UNL1       -0.2464
     22 O          18.8568   70.4038  -10.4793 O.2     1  UNL1       -0.2670
     23 H          16.7788   70.5353   -9.1782 H       1  UNL1        0.1734
     24 O          20.9690   71.1709    0.5460 O.3     1  UNL1       -0.2703
     25 P          21.9038   71.9734    1.5814 P.3     1  UNL1        0.2208
     26 O          22.8237   71.0272    2.2505 O.2     1  UNL1       -0.5170
     27 O          22.7601   73.0804    0.7843 O.3     1  UNL1       -0.4371
     28 O          20.9842   72.6999    2.6844 O.3     1  UNL1       -0.2858
     29 C          21.7779   73.7316    3.2720 C.3     1  UNL1        0.2704
     30 C          21.6033   73.7054    4.7913 C.3     1  UNL1        0.1967
     31 C          20.1221   73.9053    5.1265 C.3     1  UNL1        0.1715
     32 C          19.6314   75.1825    4.4355 C.3     1  UNL1        0.1694
     33 C          19.9540   75.0957    2.9417 C.3     1  UNL1        0.1761
     34 O          22.0455   72.4465    5.3022 O.3     1  UNL1       -0.3775
     35 O          19.9626   74.0303    6.5412 O.3     1  UNL1       -0.3794
     36 O          20.2868   76.3163    5.0057 O.3     1  UNL1       -0.3794
     37 O          21.3657   74.9964    2.7592 O.3     1  UNL1       -0.3258
     38 H          22.9783   72.3602    5.0624 H       1  UNL1        0.2106
     39 H          20.2939   73.2126    6.9335 H       1  UNL1        0.2105
     40 H          20.0605   76.3273    5.9449 H       1  UNL1        0.2105
     41 C          19.4373   76.3517    2.2363 C.3     1  UNL1        0.1693
     42 O          20.4525   77.3568    2.2507 O.3     1  UNL1       -0.3794
     43 H          20.0880   78.1292    1.7970 H       1  UNL1        0.2105
@<TRIPOS>BOND
     1    15    16   ar
     2    15    20   ar
     3    15     6    1
     4    16    17   ar
     5    16    21    2
     6    17    18   ar
     7    17    23    1
     8    18    19   ar
     9    18    22    2
    10    19    20   ar
    11     6     7    1
    12     6    11    1
    13     7     8    1
    14     7     9    1
    15     8    13    1
    16     9    10    1
    17     9    12    1
    18    10    11    1
    19    10     5    1
    20    12    14    1
    21     5     4    1
    22     4     1    1
    23     1     2    2
    24     1     3    1
    25     1    24    1
    26    24    25    1
    27    25    26    2
    28    25    27    1
    29    25    28    1
    30    28    29    1
    31    29    30    1
    32    29    37    1
    33    30    31    1
    34    30    34    1
    35    31    32    1
    36    31    35    1
    37    32    33    1
    38    32    36    1
    39    33    41    1
    40    33    37    1
    41    41    42    1
    42    34    38    1
    43    35    39    1
    44    36    40    1
    45    42    43    1
@<TRIPOS>MOLECULE
GDU
 43 45 0 0 0
SMALL
GASTEIGER

@<TRIPOS>ATOM
      1 P          21.8290   70.6937   -0.4790 P.3     1  UNL1        0.2189
      2 O          21.7255   69.5415    0.4437 O.2     1  UNL1       -0.5170
      3 O          20.3730   71.3506   -0.6825 O.3     1  UNL1       -0.4371
      4 O          22.8304   71.7894    0.1403 O.3     1  UNL1       -0.3112
      5 C          22.4631   71.9580    1.5105 C.3     1  UNL1        0.1811
      6 C          20.6585   74.5174    3.2768 C.3     1  UNL1        0.2383
      7 C          22.0975   74.5908    3.8486 C.3     1  UNL1        0.1895
      8 O          22.4207   75.9252    4.2462 O.3     1  UNL1       -0.3779
      9 C          22.9534   74.1536    2.6314 C.3     1  UNL1        0.1713
     10 C          21.9641   73.3867    1.7344 C.3     1  UNL1        0.1764
     11 O          20.6972   73.3606    2.4145 O.3     1  UNL1       -0.3308
     12 O          23.4739   75.2969    1.9503 O.3     1  UNL1       -0.3794
     13 H          23.3242   75.9022    4.5914 H       1  UNL1        0.2106
     14 H          24.0370   75.7662    2.5807 H       1  UNL1        0.2105
     15 N          19.6831   74.3271    4.3517 N.ar    1  UNL1       -0.2551
     16 C          20.0594   73.7281    5.4953 C.ar    1  UNL1        0.3323
     17 N          19.1832   73.5441    6.5004 N.ar    1  UNL1       -0.2743
     18 C          17.9056   73.9507    6.3716 C.ar    1  UNL1        0.2626
     19 C          17.4935   74.5780    5.1703 C.ar    1  UNL1        0.0795
     20 C          18.3938   74.7539    4.1799 C.ar    1  UNL1        0.0869
     21 O          21.2087   73.3564    5.6262 O.2     1  UNL1       -0.2464
     22 O          17.1105   73.7803    7.2789 O.2     1  UNL1       -0.2670
     23 H          19.4731   73.1138    7.3204 H       1  UNL1        0.1734
     24 O          22.3934   70.1921   -1.9010 O.3     1  UNL1       -0.2703
     25 P          21.9273   71.2751   -2.9964 P.3     1  UNL1        0.2208
     26 O          21.4351   72.4899   -2.3101 O.2     1  UNL1       -0.5170
     27 O          23.1775   71.6596   -3.9362 O.3     1  UNL1       -0.4371
     28 O          20.7495   70.6535   -3.8999 O.3     1  UNL1       -0.2858
     29 C          19.8023   71.6988   -4.1234 C.3     1  UNL1        0.2704
     30 C          18.4000   71.1985   -3.7732 C.3     1  UNL1        0.1967
     31 C          18.0745   69.9790   -4.6411 C.3     1  UNL1        0.1715
     32 C          18.2846   70.3544   -6.1123 C.3     1  UNL1        0.1694
     33 C          19.6975   70.9172   -6.2855 C.3     1  UNL1        0.1761
     34 O          18.3534   70.8319   -2.3931 O.3     1  UNL1       -0.3775
     35 O          16.7154   69.5898   -4.4318 O.3     1  UNL1       -0.3794
     36 O          17.3229   71.3380   -6.4965 O.3     1  UNL1       -0.3794
     37 O          19.8475   72.0939   -5.4925 O.3     1  UNL1       -0.3258
     38 H          18.5711   71.6258   -1.8861 H       1  UNL1        0.2106
     39 H          16.6269   69.3750   -3.4946 H       1  UNL1        0.2105
     40 H          16.4510   70.9430   -6.3658 H       1  UNL1        0.2105
     41 C          19.9298   71.2635   -7.7580 C.3     1  UNL1        0.1693
     42 O          20.3345   70.0896   -8.4644 O.3     1  UNL1       -0.3794
     43 H          20.4695   70.3501   -9.3859 H       1  UNL1        0.2105
@<TRIPOS>BOND
     1    15    16   ar
     2    15    20   ar
     3    15     6    1
     4    16    17   ar
     5    16    21    2
     6    17    18   ar
     7    17    23    1
     8    18    19   ar
     9    18    22    2
    10    19    20   ar
    11     6     7    1
    12     6    11    1
    13     7     8    1
    14     7     9    1
    15     8    13    1
    16     9    10    1
    17     9    12    1
    18    10    11    1
    19    10     5    1
    20    12    14    1
    21     5     4    1
    22     4     1    1
    23     1     2    2
    24     1     3    1
    25     1    24    1
    26    24    25    1
    27    25    26    2
    28    25    27    1
    29    25    28    1
    30    28    29    1
    31    29    30    1
    32    29    37    1
    33    30    31    1
    34    30    34    1
    35    31    32    1
    36    31    35    1
    37    32    33    1
    38    32    36    1
    39    33    41    1
    40    33    37    1
    41    41    42    1
    42    34    38    1
    43    35    39    1
    44    36    40    1
    45    42    43    1
@<TRIPOS>MOLECULE
GDU
 43 45 0 0 0
SMALL
GASTEIGER

@<TRIPOS>ATOM
      1 P          22.2152   70.3253   -0.6905 P.3     1  UNL1        0.2189
      2 O          22.7480   69.1386    0.0149 O.2     1  UNL1       -0.5170
      3 O          20.6091   70.2323   -0.7593 O.3     1  UNL1       -0.4371
      4 O          22.6421   71.6579    0.1025 O.3     1  UNL1       -0.3112
      5 C          22.4331   71.3978    1.4914 C.3     1  UNL1        0.1811
      6 C          21.2683   74.0637    3.6040 C.3     1  UNL1        0.2383
      7 C          21.6834   74.7652    2.2855 C.3     1  UNL1        0.1895
      8 O          20.8833   75.9264    2.0519 O.3     1  UNL1       -0.3779
      9 C          21.3899   73.6693    1.2281 C.3     1  UNL1        0.1713
     10 C          21.3778   72.3603    2.0392 C.3     1  UNL1        0.1764
     11 O          21.6843   72.6962    3.4035 O.3     1  UNL1       -0.3308
     12 O          20.1203   73.8962    0.6127 O.3     1  UNL1       -0.3794
     13 H          21.1910   76.3145    1.2208 H       1  UNL1        0.2106
     14 H          20.1721   74.7551    0.1720 H       1  UNL1        0.2105
     15 N          21.9677   74.6533    4.7469 N.ar    1  UNL1       -0.2551
     16 C          21.4249   74.5731    5.9746 C.ar    1  UNL1        0.3323
     17 N          22.0491   75.1038    7.0426 N.ar    1  UNL1       -0.2743
     18 C          23.2294   75.7358    6.8958 C.ar    1  UNL1        0.2626
     19 C          23.8102   75.8330    5.6076 C.ar    1  UNL1        0.0795
     20 C          23.1651   75.2883    4.5542 C.ar    1  UNL1        0.0869
     21 O          20.3609   74.0056    6.1227 O.2     1  UNL1       -0.2464
     22 O          23.7928   76.2207    7.8612 O.2     1  UNL1       -0.2670
     23 H          21.6449   75.0329    7.9220 H       1  UNL1        0.1734
     24 O          22.8131   70.3735   -2.1847 O.3     1  UNL1       -0.2703
     25 P          21.9781   71.4922   -2.9855 P.3     1  UNL1        0.2208
     26 O          21.4509   72.4917   -2.0304 O.2     1  UNL1       -0.5170
     27 O          22.9427   72.2230   -4.0484 O.3     1  UNL1       -0.4371
     28 O          20.7544   70.7949   -3.7642 O.3     1  UNL1       -0.2858
     29 C          19.7324   71.7832   -3.9008 C.3     1  UNL1        0.2704
     30 C          18.3705   71.1509   -3.6097 C.3     1  UNL1        0.1967
     31 C          18.1386   69.9944   -4.5870 C.3     1  UNL1        0.1715
     32 C          18.3233   70.5162   -6.0164 C.3     1  UNL1        0.1694
     33 C          19.6908   71.1953   -6.1255 C.3     1  UNL1        0.1761
     34 O          18.3484   70.6582   -2.2688 O.3     1  UNL1       -0.3775
     35 O          16.8118   69.4883   -4.4257 O.3     1  UNL1       -0.3794
     36 O          17.2919   71.4567   -6.3187 O.3     1  UNL1       -0.3794
     37 O          19.7510   72.3031   -5.2281 O.3     1  UNL1       -0.3258
     38 H          18.5052   71.4168   -1.6902 H       1  UNL1        0.2106
     39 H          16.7376   69.1835   -3.5126 H       1  UNL1        0.2105
     40 H          16.4515   70.9880   -6.2320 H       1  UNL1        0.2105
     41 C          19.8998   71.6900   -7.5585 C.3     1  UNL1        0.1693
     42 O          21.2939   71.8978   -7.7913 O.3     1  UNL1       -0.3794
     43 H          21.3823   72.2076   -8.7031 H       1  UNL1        0.2105
@<TRIPOS>BOND
     1    15    16   ar
     2    15    20   ar
     3    15     6    1
     4    16    17   ar
     5    16    21    2
     6    17    18   ar
     7    17    23    1
     8    18    19   ar
     9    18    22    2
    10    19    20   ar
    11     6     7    1
    12     6    11    1
    13     7     8    1
    14     7     9    1
    15     8    13    1
    16     9    10    1
    17     9    12    1
    18    10    11    1
    19    10     5    1
    20    12    14    1
    21     5     4    1
    22     4     1    1
    23     1     2    2
    24     1     3    1
    25     1    24    1
    26    24    25    1
    27    25    26    2
    28    25    27    1
    29    25    28    1
    30    28    29    1
    31    29    30    1
    32    29    37    1
    33    30    31    1
    34    30    34    1
    35    31    32    1
    36    31    35    1
    37    32    33    1
    38    32    36    1
    39    33    41    1
    40    33    37    1
    41    41    42    1
    42    34    38    1
    43    35    39    1
    44    36    40    1
    45    42    43    1
@<TRIPOS>MOLECULE
GDU
 43 45 0 0 0
SMALL
GASTEIGER

@<TRIPOS>ATOM
      1 P          22.5468   72.9766   -3.5082 P.3     1  UNL1        0.2189
      2 O          23.9299   72.6993   -3.9550 O.2     1  UNL1       -0.5170
      3 O          21.9811   74.2691   -4.2844 O.3     1  UNL1       -0.4371
      4 O          21.6137   71.7066   -3.8297 O.3     1  UNL1       -0.3112
      5 C          20.6638   71.6115   -2.7671 C.3     1  UNL1        0.1811
      6 C          18.1921   71.1741   -5.3414 C.3     1  UNL1        0.2383
      7 C          18.1528   69.8506   -4.5353 C.3     1  UNL1        0.1895
      8 O          16.8415   69.2818   -4.5525 O.3     1  UNL1       -0.3779
      9 C          18.5299   70.3278   -3.1086 C.3     1  UNL1        0.1713
     10 C          19.2468   71.6709   -3.3406 C.3     1  UNL1        0.1764
     11 O          19.3035   71.8892   -4.7609 O.3     1  UNL1       -0.3308
     12 O          17.3551   70.5105   -2.3160 O.3     1  UNL1       -0.3794
     13 H          16.8851   68.4649   -4.0362 H       1  UNL1        0.2106
     14 H          16.9205   69.6489   -2.2567 H       1  UNL1        0.2105
     15 N          18.4339   70.9091   -6.7606 N.ar    1  UNL1       -0.2551
     16 C          17.3926   70.7316   -7.5927 C.ar    1  UNL1        0.3323
     17 N          17.5875   70.4902   -8.9026 N.ar    1  UNL1       -0.2743
     18 C          18.8363   70.4123   -9.4012 C.ar    1  UNL1        0.2626
     19 C          19.9428   70.5914   -8.5354 C.ar    1  UNL1        0.0795
     20 C          19.7190   70.8366   -7.2269 C.ar    1  UNL1        0.0869
     21 O          16.2603   70.7995   -7.1575 O.2     1  UNL1       -0.2464
     22 O          19.0137   70.1891  -10.5858 O.2     1  UNL1       -0.2670
     23 H          16.8242   70.3689   -9.4895 H       1  UNL1        0.1734
     24 O          22.5425   73.2598   -1.9232 O.3     1  UNL1       -0.2703
     25 P          23.2434   74.6916   -1.7031 P.3     1  UNL1        0.2208
     26 O          22.5226   75.7191   -2.4866 O.2     1  UNL1       -0.5170
     27 O          23.1954   75.0777   -0.1402 O.3     1  UNL1       -0.4371
     28 O          24.7756   74.6209   -2.1903 O.3     1  UNL1       -0.2858
     29 C          25.1617   75.9507   -2.5400 C.3     1  UNL1        0.2704
     30 C          25.7119   75.9625   -3.9670 C.3     1  UNL1        0.1967
     31 C          26.9109   75.0125   -4.0470 C.3     1  UNL1        0.1715
     32 C          27.9166   75.3998   -2.9569 C.3     1  UNL1        0.1694
     33 C          27.1989   75.4287   -1.6052 C.3     1  UNL1        0.1761
     34 O          24.6966   75.5317   -4.8751 O.3     1  UNL1       -0.3775
     35 O          27.5260   75.1229   -5.3323 O.3     1  UNL1       -0.3794
     36 O          28.4584   76.6899   -3.2433 O.3     1  UNL1       -0.3794
     37 O          26.1613   76.4077   -1.6319 O.3     1  UNL1       -0.3258
     38 H          23.9607   76.1525   -4.7858 H       1  UNL1        0.2106
     39 H          26.8561   74.8826   -5.9847 H       1  UNL1        0.2105
     40 H          28.8942   76.6259   -4.1031 H       1  UNL1        0.2105
     41 C          28.2021   75.7811   -0.5045 C.3     1  UNL1        0.1693
     42 O          29.4971   75.3010   -0.8700 O.3     1  UNL1       -0.3794
     43 H          30.0983   75.5435   -0.1523 H       1  UNL1        0.2105
@<TRIPOS>BOND
     1    15    16   ar
     2    15    20   ar
     3    15     6    1
     4    16    17   ar
     5    16    21    2
     6    17    18   ar
     7    17    23    1
     8    18    19   ar
     9    18    22    2
    10    19    20   ar
    11     6     7    1
    12     6    11    1
    13     7     8    1
    14     7     9    1
    15     8    13    1
    16     9    10    1
    17     9    12    1
    18    10    11    1
    19    10     5    1
    20    12    14    1
    21     5     4    1
    22     4     1    1
    23     1     2    2
    24     1     3    1
    25     1    24    1
    26    24    25    1
    27    25    26    2
    28    25    27    1
    29    25    28    1
    30    28    29    1
    31    29    30    1
    32    29    37    1
    33    30    31    1
    34    30    34    1
    35    31    32    1
    36    31    35    1
    37    32    33    1
    38    32    36    1
    39    33    41    1
    40    33    37    1
    41    41    42    1
    42    34    38    1
    43    35    39    1
    44    36    40    1
    45    42    43    1
@<TRIPOS>MOLECULE
GDU
 43 45 0 0 0
SMALL
GASTEIGER

@<TRIPOS>ATOM
      1 P          22.6738   71.2059   -1.9295 P.3     1  UNL1        0.2189
      2 O          23.2134   70.8071   -3.2484 O.2     1  UNL1       -0.5170
      3 O          22.9191   72.7812   -1.7036 O.3     1  UNL1       -0.4371
      4 O          21.0965   70.8956   -1.8784 O.3     1  UNL1       -0.3112
      5 C          20.4258   72.0975   -2.2605 C.3     1  UNL1        0.1811
      6 C          17.8780   71.7276   -4.7704 C.3     1  UNL1        0.2383
      7 C          18.5162   70.3197   -4.6533 C.3     1  UNL1        0.1895
      8 O          17.5559   69.2994   -4.9363 O.3     1  UNL1       -0.3779
      9 C          18.9430   70.2795   -3.1629 C.3     1  UNL1        0.1713
     10 C          19.0173   71.7625   -2.7547 C.3     1  UNL1        0.1764
     11 O          18.7095   72.5461   -3.9207 O.3     1  UNL1       -0.3308
     12 O          17.9669   69.5871   -2.3821 O.3     1  UNL1       -0.3794
     13 H          18.0144   68.4524   -4.8468 H       1  UNL1        0.2106
     14 H          17.9247   68.6835   -2.7235 H       1  UNL1        0.2105
     15 N          17.9264   72.2047   -6.1535 N.ar    1  UNL1       -0.2551
     16 C          18.8991   71.7715   -6.9748 C.ar    1  UNL1        0.3323
     17 N          18.9641   72.1920   -8.2518 N.ar    1  UNL1       -0.2743
     18 C          18.0562   73.0661   -8.7269 C.ar    1  UNL1        0.2626
     19 C          17.0294   73.5355   -7.8716 C.ar    1  UNL1        0.0795
     20 C          16.9849   73.0944   -6.5965 C.ar    1  UNL1        0.0869
     21 O          19.7249   70.9825   -6.5605 O.2     1  UNL1       -0.2464
     22 O          18.1170   73.4510   -9.8814 O.2     1  UNL1       -0.2670
     23 H          19.6704   71.8656   -8.8318 H       1  UNL1        0.1734
     24 O          23.4232   70.3759   -0.7710 O.3     1  UNL1       -0.2703
     25 P          22.5119   70.4924    0.5504 P.3     1  UNL1        0.2208
     26 O          21.2990   69.6608    0.3877 O.2     1  UNL1       -0.5170
     27 O          23.3486   69.9763    1.8262 O.3     1  UNL1       -0.4371
     28 O          22.0849   72.0277    0.7755 O.3     1  UNL1       -0.2858
     29 C          22.6022   72.4199    2.0477 C.3     1  UNL1        0.2704
     30 C          21.4544   72.8967    2.9390 C.3     1  UNL1        0.1967
     31 C          20.7482   74.0722    2.2565 C.3     1  UNL1        0.1715
     32 C          21.7937   75.1392    1.9128 C.3     1  UNL1        0.1694
     33 C          22.9156   74.4922    1.0969 C.3     1  UNL1        0.1761
     34 O          20.5265   71.8284    3.1368 O.3     1  UNL1       -0.3775
     35 O          19.7693   74.6228    3.1402 O.3     1  UNL1       -0.3794
     36 O          22.3286   75.6895    3.1174 O.3     1  UNL1       -0.3794
     37 O          23.5470   73.4729    1.8704 O.3     1  UNL1       -0.3258
     38 H          21.0148   71.1097    3.5610 H       1  UNL1        0.2106
     39 H          19.1418   73.9161    3.3380 H       1  UNL1        0.2105
     40 H          21.5880   76.0796    3.5999 H       1  UNL1        0.2105
     41 C          23.9482   75.5567    0.7191 C.3     1  UNL1        0.1693
     42 O          24.9545   75.6232    1.7309 O.3     1  UNL1       -0.3794
     43 H          25.5843   76.3033    1.4550 H       1  UNL1        0.2105
@<TRIPOS>BOND
     1    15    16   ar
     2    15    20   ar
     3    15     6    1
     4    16    17   ar
     5    16    21    2
     6    17    18   ar
     7    17    23    1
     8    18    19   ar
     9    18    22    2
    10    19    20   ar
    11     6     7    1
    12     6    11    1
    13     7     8    1
    14     7     9    1
    15     8    13    1
    16     9    10    1
    17     9    12    1
    18    10    11    1
    19    10     5    1
    20    12    14    1
    21     5     4    1
    22     4     1    1
    23     1     2    2
    24     1     3    1
    25     1    24    1
    26    24    25    1
    27    25    26    2
    28    25    27    1
    29    25    28    1
    30    28    29    1
    31    29    30    1
    32    29    37    1
    33    30    31    1
    34    30    34    1
    35    31    32    1
    36    31    35    1
    37    32    33    1
    38    32    36    1
    39    33    41    1
    40    33    37    1
    41    41    42    1
    42    34    38    1
    43    35    39    1
    44    36    40    1
    45    42    43    1
@<TRIPOS>MOLECULE
GDU
 43 45 0 0 0
SMALL
GASTEIGER

@<TRIPOS>ATOM
      1 P          19.4998   69.7427   -3.0245 P.3     1  UNL1        0.2189
      2 O          20.7991   69.0647   -2.8202 O.2     1  UNL1       -0.5170
      3 O          18.3250   68.8617   -2.3639 O.3     1  UNL1       -0.4371
      4 O          19.5366   71.1939   -2.3319 O.3     1  UNL1       -0.3112
      5 C          20.6800   71.2149   -1.4759 C.3     1  UNL1        0.1811
      6 C          21.7073   73.7802    0.8243 C.3     1  UNL1        0.2383
      7 C          23.0093   73.3739    0.0878 C.3     1  UNL1        0.1895
      8 O          23.9056   74.4829   -0.0129 O.3     1  UNL1       -0.3779
      9 C          22.4774   72.9641   -1.3102 C.3     1  UNL1        0.1713
     10 C          20.9878   72.6569   -1.0685 C.3     1  UNL1        0.1764
     11 O          20.7343   72.8324    0.3361 O.3     1  UNL1       -0.3308
     12 O          22.6291   74.0404   -2.2377 O.3     1  UNL1       -0.3794
     13 H          24.6916   74.1649   -0.4785 H       1  UNL1        0.2106
     14 H          23.5761   74.2242   -2.3011 H       1  UNL1        0.2105
     15 N          21.8703   73.6520    2.2734 N.ar    1  UNL1       -0.2551
     16 C          21.7808   72.4404    2.8499 C.ar    1  UNL1        0.3323
     17 N          21.9303   72.2945    4.1796 N.ar    1  UNL1       -0.2743
     18 C          22.1635   73.3677    4.9594 C.ar    1  UNL1        0.2626
     19 C          22.2547   74.6509    4.3667 C.ar    1  UNL1        0.0795
     20 C          22.1050   74.7683    3.0302 C.ar    1  UNL1        0.0869
     21 O          21.5712   71.4630    2.1593 O.2     1  UNL1       -0.2464
     22 O          22.2943   73.2373    6.1638 O.2     1  UNL1       -0.2670
     23 H          21.8668   71.4120    4.5783 H       1  UNL1        0.1734
     24 O          19.2234   69.9066   -4.6023 O.3     1  UNL1       -0.2703
     25 P          17.7213   70.4631   -4.7575 P.3     1  UNL1        0.2208
     26 O          16.7874   69.3257   -4.9095 O.2     1  UNL1       -0.5170
     27 O          17.3251   71.3105   -3.4464 O.3     1  UNL1       -0.4371
     28 O          17.6303   71.4106   -6.0551 O.3     1  UNL1       -0.2858
     29 C          18.9381   71.9413   -6.2740 C.3     1  UNL1        0.2704
     30 C          18.8253   73.3764   -6.7907 C.3     1  UNL1        0.1967
     31 C          18.0172   73.3757   -8.0920 C.3     1  UNL1        0.1715
     32 C          18.6574   72.3802   -9.0659 C.3     1  UNL1        0.1694
     33 C          18.7811   71.0191   -8.3767 C.3     1  UNL1        0.1761
     34 O          18.1650   74.1856   -5.8158 O.3     1  UNL1       -0.3775
     35 O          18.0275   74.6853   -8.6643 O.3     1  UNL1       -0.3794
     36 O          19.9523   72.8485   -9.4454 O.3     1  UNL1       -0.3794
     37 O          19.6224   71.1349   -7.2300 O.3     1  UNL1       -0.3258
     38 H          18.7035   74.1511   -5.0135 H       1  UNL1        0.2106
     39 H          17.6281   75.2777   -8.0148 H       1  UNL1        0.2105
     40 H          19.8262   73.7077   -9.8687 H       1  UNL1        0.2105
     41 C          19.3881   70.0085   -9.3525 C.3     1  UNL1        0.1693
     42 O          19.0333   70.3663  -10.6894 O.3     1  UNL1       -0.3794
     43 H          19.4349   69.7067  -11.2716 H       1  UNL1        0.2105
@<TRIPOS>BOND
     1    15    16   ar
     2    15    20   ar
     3    15     6    1
     4    16    17   ar
     5    16    21    2
     6    17    18   ar
     7    17    23    1
     8    18    19   ar
     9    18    22    2
    10    19    20   ar
    11     6     7    1
    12     6    11    1
    13     7     8    1
    14     7     9    1
    15     8    13    1
    16     9    10    1
    17     9    12    1
    18    10    11    1
    19    10     5    1
    20    12    14    1
    21     5     4    1
    22     4     1    1
    23     1     2    2
    24     1     3    1
    25     1    24    1
    26    24    25    1
    27    25    26    2
    28    25    27    1
    29    25    28    1
    30    28    29    1
    31    29    30    1
    32    29    37    1
    33    30    31    1
    34    30    34    1
    35    31    32    1
    36    31    35    1
    37    32    33    1
    38    32    36    1
    39    33    41    1
    40    33    37    1
    41    41    42    1
    42    34    38    1
    43    35    39    1
    44    36    40    1
    45    42    43    1
@<TRIPOS>MOLECULE
GDU
 43 45 0 0 0
SMALL
GASTEIGER

@<TRIPOS>ATOM
      1 P          22.8225   72.1532   -3.2181 P.3     1  UNL1        0.2189
      2 O          22.9762   72.5613   -4.6321 O.2     1  UNL1       -0.5170
      3 O          23.5367   70.7280   -2.9904 O.3     1  UNL1       -0.4371
      4 O          23.5049   73.2538   -2.2642 O.3     1  UNL1       -0.3112
      5 C          22.8838   73.1335   -0.9835 C.3     1  UNL1        0.1811
      6 C          22.8302   75.3397    1.8551 C.3     1  UNL1        0.2383
      7 C          24.3312   75.2131    1.4890 C.3     1  UNL1        0.1895
      8 O          25.0387   76.4112    1.8162 O.3     1  UNL1       -0.3779
      9 C          24.2746   75.0061   -0.0470 C.3     1  UNL1        0.1713
     10 C          22.8418   74.5036   -0.3044 C.3     1  UNL1        0.1764
     11 O          22.1872   74.3965    0.9716 O.3     1  UNL1       -0.3308
     12 O          24.5084   76.2412   -0.7265 O.3     1  UNL1       -0.3794
     13 H          25.9618   76.2673    1.5651 H       1  UNL1        0.2106
     14 H          25.3963   76.5332   -0.4792 H       1  UNL1        0.2105
     15 N          22.6055   74.9718    3.2540 N.ar    1  UNL1       -0.2551
     16 C          22.7765   73.6963    3.6439 C.ar    1  UNL1        0.3323
     17 N          22.5798   73.3325    4.9249 N.ar    1  UNL1       -0.2743
     18 C          22.1968   74.2440    5.8395 C.ar    1  UNL1        0.2626
     19 C          22.0073   75.5902    5.4420 C.ar    1  UNL1        0.0795
     20 C          22.2155   75.9288    4.1519 C.ar    1  UNL1        0.0869
     21 O          23.1223   72.8629    2.8302 O.2     1  UNL1       -0.2464
     22 O          22.0140   73.9147    6.9982 O.2     1  UNL1       -0.2670
     23 H          22.7120   72.4082    5.1895 H       1  UNL1        0.1734
     24 O          21.2569   72.0301   -2.8632 O.3     1  UNL1       -0.2703
     25 P          20.8297   70.5069   -3.1590 P.3     1  UNL1        0.2208
     26 O          22.0437   69.6735   -3.3032 O.2     1  UNL1       -0.5170
     27 O          19.9406   69.9520   -1.9360 O.3     1  UNL1       -0.4371
     28 O          19.9697   70.4439   -4.5179 O.3     1  UNL1       -0.2858
     29 C          19.7057   71.7930   -4.9048 C.3     1  UNL1        0.2704
     30 C          18.2419   72.1287   -4.6150 C.3     1  UNL1        0.1967
     31 C          17.3450   71.1584   -5.3900 C.3     1  UNL1        0.1715
     32 C          17.7429   71.1988   -6.8697 C.3     1  UNL1        0.1694
     33 C          19.2454   70.9315   -6.9887 C.3     1  UNL1        0.1761
     34 O          17.9898   72.0011   -3.2146 O.3     1  UNL1       -0.3775
     35 O          15.9780   71.5498   -5.2470 O.3     1  UNL1       -0.3794
     36 O          17.4371   72.4844   -7.4118 O.3     1  UNL1       -0.3794
     37 O          19.9712   71.9469   -6.2971 O.3     1  UNL1       -0.3258
     38 H          18.5796   72.6232   -2.7671 H       1  UNL1        0.2106
     39 H          15.7760   71.5215   -4.3033 H       1  UNL1        0.2105
     40 H          16.4848   72.6115   -7.3104 H       1  UNL1        0.2105
     41 C          19.6471   70.9357   -8.4654 C.3     1  UNL1        0.1693
     42 O          20.3390   69.7243   -8.7734 O.3     1  UNL1       -0.3794
     43 H          20.5733   69.7664   -9.7107 H       1  UNL1        0.2105
@<TRIPOS>BOND
     1    15    16   ar
     2    15    20   ar
     3    15     6    1
     4    16    17   ar
     5    16    21    2
     6    17    18   ar
     7    17    23    1
     8    18    19   ar
     9    18    22    2
    10    19    20   ar
    11     6     7    1
    12     6    11    1
    13     7     8    1
    14     7     9    1
    15     8    13    1
    16     9    10    1
    17     9    12    1
    18    10    11    1
    19    10     5    1
    20    12    14    1
    21     5     4    1
    22     4     1    1
    23     1     2    2
    24     1     3    1
    25     1    24    1
    26    24    25    1
    27    25    26    2
    28    25    27    1
    29    25    28    1
    30    28    29    1
    31    29    30    1
    32    29    37    1
    33    30    31    1
    34    30    34    1
    35    31    32    1
    36    31    35    1
    37    32    33    1
    38    32    36    1
    39    33    41    1
    40    33    37    1
    41    41    42    1
    42    34    38    1
    43    35    39    1
    44    36    40    1
    45    42    43    1
@<TRIPOS>MOLECULE
GDU
 43 45 0 0 0
SMALL
GASTEIGER

@<TRIPOS>ATOM
      1 P          22.3587   71.6794   -3.1937 P.3     1  UNL1        0.2189
      2 O          23.0937   72.9574   -3.3200 O.2     1  UNL1       -0.5170
      3 O          23.4028   70.4540   -3.2314 O.3     1  UNL1       -0.4371
      4 O          21.5553   71.6572   -1.8006 O.3     1  UNL1       -0.3112
      5 C          22.5173   71.8627   -0.7648 C.3     1  UNL1        0.1811
      6 C          22.4384   73.8509    2.2298 C.3     1  UNL1        0.2383
      7 C          22.0620   74.8393    1.0965 C.3     1  UNL1        0.1895
      8 O          21.1803   75.8560    1.5785 O.3     1  UNL1       -0.3779
      9 C          21.3379   73.9132    0.0849 C.3     1  UNL1        0.1713
     10 C          21.8362   72.5017    0.4468 C.3     1  UNL1        0.1764
     11 O          22.7816   72.6410    1.5214 O.3     1  UNL1       -0.3308
     12 O          19.9213   74.0077    0.2466 O.3     1  UNL1       -0.3794
     13 H          20.9860   76.4351    0.8284 H       1  UNL1        0.2106
     14 H          19.6792   74.9257    0.0642 H       1  UNL1        0.2105
     15 N          23.5870   74.3472    2.9897 N.ar    1  UNL1       -0.2551
     16 C          23.7280   74.0074    4.2831 C.ar    1  UNL1        0.3323
     17 N          24.7767   74.4473    5.0032 N.ar    1  UNL1       -0.2743
     18 C          25.7015   75.2476    4.4387 C.ar    1  UNL1        0.2626
     19 C          25.5628   75.6184    3.0787 C.ar    1  UNL1        0.0795
     20 C          24.5037   75.1597    2.3784 C.ar    1  UNL1        0.0869
     21 O          22.9022   73.2858    4.8059 O.2     1  UNL1       -0.2464
     22 O          26.6485   75.6501    5.0911 O.2     1  UNL1       -0.2670
     23 H          24.8650   74.1887    5.9344 H       1  UNL1        0.1734
     24 O          21.3204   71.5355   -4.4159 O.3     1  UNL1       -0.2703
     25 P          21.3758   72.9166   -5.2402 P.3     1  UNL1        0.2208
     26 O          21.2247   74.0545   -4.3067 O.2     1  UNL1       -0.5170
     27 O          22.7911   73.0311   -6.0005 O.3     1  UNL1       -0.4371
     28 O          20.1836   72.9460   -6.3210 O.3     1  UNL1       -0.2858
     29 C          19.7858   71.5914   -6.5368 C.3     1  UNL1        0.2704
     30 C          19.7963   71.2905   -8.0364 C.3     1  UNL1        0.1967
     31 C          18.8399   72.2546   -8.7451 C.3     1  UNL1        0.1715
     32 C          17.4659   72.1653   -8.0715 C.3     1  UNL1        0.1694
     33 C          17.6321   72.4021   -6.5684 C.3     1  UNL1        0.1761
     34 O          21.1185   71.4619   -8.5497 O.3     1  UNL1       -0.3775
     35 O          18.7264   71.8920  -10.1228 O.3     1  UNL1       -0.3794
     36 O          16.9063   70.8708   -8.2972 O.3     1  UNL1       -0.3794
     37 O          18.4748   71.3937   -6.0126 O.3     1  UNL1       -0.3258
     38 H          21.6860   70.8422   -8.0714 H       1  UNL1        0.2106
     39 H          19.6126   71.9505  -10.5016 H       1  UNL1        0.2105
     40 H          16.8255   70.7637   -9.2539 H       1  UNL1        0.2105
     41 C          16.2610   72.3491   -5.8908 C.3     1  UNL1        0.1693
     42 O          16.2963   71.4048   -4.8193 O.3     1  UNL1       -0.3794
     43 H          15.4158   71.4023   -4.4193 H       1  UNL1        0.2105
@<TRIPOS>BOND
     1    15    16   ar
     2    15    20   ar
     3    15     6    1
     4    16    17   ar
     5    16    21    2
     6    17    18   ar
     7    17    23    1
     8    18    19   ar
     9    18    22    2
    10    19    20   ar
    11     6     7    1
    12     6    11    1
    13     7     8    1
    14     7     9    1
    15     8    13    1
    16     9    10    1
    17     9    12    1
    18    10    11    1
    19    10     5    1
    20    12    14    1
    21     5     4    1
    22     4     1    1
    23     1     2    2
    24     1     3    1
    25     1    24    1
    26    24    25    1
    27    25    26    2
    28    25    27    1
    29    25    28    1
    30    28    29    1
    31    29    30    1
    32    29    37    1
    33    30    31    1
    34    30    34    1
    35    31    32    1
    36    31    35    1
    37    32    33    1
    38    32    36    1
    39    33    41    1
    40    33    37    1
    41    41    42    1
    42    34    38    1
    43    35    39    1
    44    36    40    1
    45    42    43    1
@<TRIPOS>MOLECULE
GDU
 43 45 0 0 0
SMALL
GASTEIGER

@<TRIPOS>ATOM
      1 P          22.4505   70.4273   -0.2487 P.3     1  UNL1        0.2189
      2 O          23.0682   69.3095    0.4987 O.2     1  UNL1       -0.5170
      3 O          20.8668   70.1707   -0.3859 O.3     1  UNL1       -0.4371
      4 O          22.7044   71.8058    0.5400 O.3     1  UNL1       -0.3112
      5 C          22.4720   71.5396    1.9241 C.3     1  UNL1        0.1811
      6 C          20.8647   73.8938    4.1153 C.3     1  UNL1        0.2383
      7 C          21.4025   74.7562    2.9448 C.3     1  UNL1        0.1895
      8 O          20.5648   75.8928    2.7221 O.3     1  UNL1       -0.3779
      9 C          21.3241   73.7690    1.7512 C.3     1  UNL1        0.1713
     10 C          21.2922   72.3801    2.4158 C.3     1  UNL1        0.1764
     11 O          21.3933   72.5800    3.8364 O.3     1  UNL1       -0.3308
     12 O          20.1344   73.9956    0.9928 O.3     1  UNL1       -0.3794
     13 H          20.9528   76.3851    1.9852 H       1  UNL1        0.2106
     14 H          20.1868   74.8991    0.6529 H       1  UNL1        0.2105
     15 N          21.3667   74.3902    5.3976 N.ar    1  UNL1       -0.2551
     16 C          20.5998   74.2907    6.4977 C.ar    1  UNL1        0.3323
     17 N          21.0390   74.7361    7.6896 N.ar    1  UNL1       -0.2743
     18 C          22.2571   75.3008    7.7976 C.ar    1  UNL1        0.2626
     19 C          23.0736   75.4175    6.6461 C.ar    1  UNL1        0.0795
     20 C          22.6103   74.9588    5.4640 C.ar    1  UNL1        0.0869
     21 O          19.4989   73.7832    6.4159 O.2     1  UNL1       -0.2464
     22 O          22.6536   75.7085    8.8750 O.2     1  UNL1       -0.2670
     23 H          20.4738   74.6523    8.4740 H       1  UNL1        0.1734
     24 O          23.1072   70.5182   -1.7160 O.3     1  UNL1       -0.2703
     25 P          22.6779   71.9417   -2.3319 P.3     1  UNL1        0.2208
     26 O          22.8792   72.9991   -1.3168 O.2     1  UNL1       -0.5170
     27 O          23.5827   72.2612   -3.6256 O.3     1  UNL1       -0.4371
     28 O          21.1274   71.8965   -2.7609 O.3     1  UNL1       -0.2858
     29 C          21.0699   71.2713   -4.0437 C.3     1  UNL1        0.2704
     30 C          20.2615   72.1479   -5.0015 C.3     1  UNL1        0.1967
     31 C          18.8532   72.3425   -4.4310 C.3     1  UNL1        0.1715
     32 C          18.2480   70.9647   -4.1395 C.3     1  UNL1        0.1694
     33 C          19.2090   70.1781   -3.2447 C.3     1  UNL1        0.1761
     34 O          20.9013   73.4174   -5.1441 O.3     1  UNL1       -0.3775
     35 O          18.0414   73.0348   -5.3819 O.3     1  UNL1       -0.3794
     36 O          18.0465   70.2620   -5.3665 O.3     1  UNL1       -0.3794
     37 O          20.4522   69.9924   -3.9199 O.3     1  UNL1       -0.3258
     38 H          21.7846   73.2463   -5.4982 H       1  UNL1        0.2106
     39 H          18.4649   73.8873   -5.5434 H       1  UNL1        0.2105
     40 H          17.4416   70.7954   -5.8984 H       1  UNL1        0.2105
     41 C          18.5984   68.8131   -2.9193 C.3     1  UNL1        0.1693
     42 O          19.2700   67.8004   -3.6707 O.3     1  UNL1       -0.3794
     43 H          18.8567   66.9579   -3.4367 H       1  UNL1        0.2105
@<TRIPOS>BOND
     1    15    16   ar
     2    15    20   ar
     3    15     6    1
     4    16    17   ar
     5    16    21    2
     6    17    18   ar
     7    17    23    1
     8    18    19   ar
     9    18    22    2
    10    19    20   ar
    11     6     7    1
    12     6    11    1
    13     7     8    1
    14     7     9    1
    15     8    13    1
    16     9    10    1
    17     9    12    1
    18    10    11    1
    19    10     5    1
    20    12    14    1
    21     5     4    1
    22     4     1    1
    23     1     2    2
    24     1     3    1
    25     1    24    1
    26    24    25    1
    27    25    26    2
    28    25    27    1
    29    25    28    1
    30    28    29    1
    31    29    30    1
    32    29    37    1
    33    30    31    1
    34    30    34    1
    35    31    32    1
    36    31    35    1
    37    32    33    1
    38    32    36    1
    39    33    41    1
    40    33    37    1
    41    41    42    1
    42    34    38    1
    43    35    39    1
    44    36    40    1
    45    42    43    1
@<TRIPOS>MOLECULE
GDU
 43 45 0 0 0
SMALL
GASTEIGER

@<TRIPOS>ATOM
      1 P          22.1633   71.1303   -2.8906 P.3     1  UNL1        0.2189
      2 O          21.9648   69.7038   -3.2299 O.2     1  UNL1       -0.5170
      3 O          23.2516   71.7728   -3.8885 O.3     1  UNL1       -0.4371
      4 O          20.7683   71.9169   -3.0395 O.3     1  UNL1       -0.3112
      5 C          20.3643   71.7882   -4.4036 C.3     1  UNL1        0.1811
      6 C          17.2118   72.2346   -6.0739 C.3     1  UNL1        0.2383
      7 C          17.5434   70.7322   -6.2637 C.3     1  UNL1        0.1895
      8 O          16.3483   69.9511   -6.3328 O.3     1  UNL1       -0.3779
      9 C          18.3409   70.4100   -4.9732 C.3     1  UNL1        0.1713
     10 C          18.8368   71.7844   -4.4867 C.3     1  UNL1        0.1764
     11 O          18.3973   72.7642   -5.4433 O.3     1  UNL1       -0.3308
     12 O          17.4900   69.8040   -3.9982 O.3     1  UNL1       -0.3794
     13 H          16.6230   69.0310   -6.4509 H       1  UNL1        0.2106
     14 H          17.1655   68.9789   -4.3838 H       1  UNL1        0.2105
     15 N          16.9824   72.8817   -7.3668 N.ar    1  UNL1       -0.2551
     16 C          17.9800   72.9469   -8.2662 C.ar    1  UNL1        0.3323
     17 N          17.7943   73.5332   -9.4635 N.ar    1  UNL1       -0.2743
     18 C          16.6020   74.0757   -9.7774 C.ar    1  UNL1        0.2626
     19 C          15.5438   74.0196   -8.8376 C.ar    1  UNL1        0.0795
     20 C          15.7559   73.4219   -7.6458 C.ar    1  UNL1        0.0869
     21 O          19.0608   72.4615   -7.9975 O.2     1  UNL1       -0.2464
     22 O          16.4344   74.6108  -10.8591 O.2     1  UNL1       -0.2670
     23 H          18.5241   73.5674  -10.1023 H       1  UNL1        0.1734
     24 O          22.6902   71.2519   -1.3740 O.3     1  UNL1       -0.2703
     25 P          21.6302   70.4719   -0.4478 P.3     1  UNL1        0.2208
     26 O          20.4957   70.0106   -1.2779 O.2     1  UNL1       -0.5170
     27 O          22.3470   69.2010    0.2343 O.3     1  UNL1       -0.4371
     28 O          21.0890   71.4613    0.7004 O.3     1  UNL1       -0.2858
     29 C          22.1485   72.3719    0.9968 C.3     1  UNL1        0.2704
     30 C          22.5739   72.2006    2.4559 C.3     1  UNL1        0.1967
     31 C          21.3664   72.4626    3.3613 C.3     1  UNL1        0.1715
     32 C          20.7788   73.8340    3.0099 C.3     1  UNL1        0.1694
     33 C          20.4875   73.8807    1.5079 C.3     1  UNL1        0.1761
     34 O          23.0491   70.8692    2.6627 O.3     1  UNL1       -0.3775
     35 O          21.7804   72.4511    4.7291 O.3     1  UNL1       -0.3794
     36 O          21.7151   74.8569    3.3519 O.3     1  UNL1       -0.3794
     37 O          21.7005   73.7074    0.7767 O.3     1  UNL1       -0.3258
     38 H          23.8024   70.7465    2.0690 H       1  UNL1        0.2106
     39 H          22.1529   71.5772    4.9015 H       1  UNL1        0.2105
     40 H          21.8724   74.7859    4.3025 H       1  UNL1        0.2105
     41 C          19.8684   75.2342    1.1520 C.3     1  UNL1        0.1693
     42 O          19.1353   75.7312    2.2730 O.3     1  UNL1       -0.3794
     43 H          18.7628   76.5835    2.0082 H       1  UNL1        0.2105
@<TRIPOS>BOND
     1    15    16   ar
     2    15    20   ar
     3    15     6    1
     4    16    17   ar
     5    16    21    2
     6    17    18   ar
     7    17    23    1
     8    18    19   ar
     9    18    22    2
    10    19    20   ar
    11     6     7    1
    12     6    11    1
    13     7     8    1
    14     7     9    1
    15     8    13    1
    16     9    10    1
    17     9    12    1
    18    10    11    1
    19    10     5    1
    20    12    14    1
    21     5     4    1
    22     4     1    1
    23     1     2    2
    24     1     3    1
    25     1    24    1
    26    24    25    1
    27    25    26    2
    28    25    27    1
    29    25    28    1
    30    28    29    1
    31    29    30    1
    32    29    37    1
    33    30    31    1
    34    30    34    1
    35    31    32    1
    36    31    35    1
    37    32    33    1
    38    32    36    1
    39    33    41    1
    40    33    37    1
    41    41    42    1
    42    34    38    1
    43    35    39    1
    44    36    40    1
    45    42    43    1
@<TRIPOS>MOLECULE
GDU
 43 45 0 0 0
SMALL
GASTEIGER

@<TRIPOS>ATOM
      1 P          21.9903   70.5708   -0.1066 P.3     1  UNL1        0.2189
      2 O          22.9898   71.4946   -0.6872 O.2     1  UNL1       -0.5170
      3 O          22.7027   69.1761    0.2680 O.3     1  UNL1       -0.4371
      4 O          21.3611   71.2256    1.2209 O.3     1  UNL1       -0.3112
      5 C          21.3512   72.6398    1.0200 C.3     1  UNL1        0.1811
      6 C          20.6206   74.9606    3.6672 C.3     1  UNL1        0.2383
      7 C          20.0072   73.6196    4.1450 C.3     1  UNL1        0.1895
      8 O          20.0362   73.5250    5.5710 O.3     1  UNL1       -0.3779
      9 C          20.9605   72.5788    3.5022 C.3     1  UNL1        0.1713
     10 C          21.6296   73.3473    2.3474 C.3     1  UNL1        0.1764
     11 O          21.0634   74.6691    2.3246 O.3     1  UNL1       -0.3308
     12 O          21.9349   72.1407    4.4512 O.3     1  UNL1       -0.3794
     13 H          19.6420   72.6723    5.8020 H       1  UNL1        0.2106
     14 H          21.4513   71.7214    5.1758 H       1  UNL1        0.2105
     15 N          19.6092   76.0188    3.6584 N.ar    1  UNL1       -0.2551
     16 C          18.5665   75.9377    2.8132 C.ar    1  UNL1        0.3323
     17 N          17.6210   76.8954    2.7876 N.ar    1  UNL1       -0.2743
     18 C          17.7104   77.9613    3.6062 C.ar    1  UNL1        0.2626
     19 C          18.8063   78.0630    4.4977 C.ar    1  UNL1        0.0795
     20 C          19.7382   77.0862    4.5058 C.ar    1  UNL1        0.0869
     21 O          18.4720   74.9819    2.0692 O.2     1  UNL1       -0.2464
     22 O          16.8576   78.8311    3.5803 O.2     1  UNL1       -0.2670
     23 H          16.8729   76.8185    2.1742 H       1  UNL1        0.1734
     24 O          20.8209   70.3030   -1.1805 O.3     1  UNL1       -0.2703
     25 P          21.3281   70.9075   -2.5831 P.3     1  UNL1        0.2208
     26 O          21.5376   72.3656   -2.4446 O.2     1  UNL1       -0.5170
     27 O          22.7154   70.2037   -3.0002 O.3     1  UNL1       -0.4371
     28 O          20.2233   70.6287   -3.7197 O.3     1  UNL1       -0.2858
     29 C          19.0046   71.2205   -3.2679 C.3     1  UNL1        0.2704
     30 C          17.8933   70.1698   -3.2798 C.3     1  UNL1        0.1967
     31 C          17.7357   69.6268   -4.7034 C.3     1  UNL1        0.1715
     32 C          17.5269   70.8078   -5.6580 C.3     1  UNL1        0.1694
     33 C          18.6680   71.8099   -5.4670 C.3     1  UNL1        0.1761
     34 O          18.2345   69.1022   -2.3938 O.3     1  UNL1       -0.3775
     35 O          16.6058   68.7535   -4.7619 O.3     1  UNL1       -0.3794
     36 O          16.2777   71.4384   -5.3718 O.3     1  UNL1       -0.3794
     37 O          18.6565   72.3030   -4.1281 O.3     1  UNL1       -0.3258
     38 H          18.3306   69.4902   -1.5134 H       1  UNL1        0.2106
     39 H          16.7749   68.0350   -4.1394 H       1  UNL1        0.2105
     40 H          15.5914   70.7706   -5.4992 H       1  UNL1        0.2105
     41 C          18.4876   72.9772   -6.4401 C.3     1  UNL1        0.1693
     42 O          17.8455   72.5109   -7.6281 O.3     1  UNL1       -0.3794
     43 H          17.7502   73.2751   -8.2131 H       1  UNL1        0.2105
@<TRIPOS>BOND
     1    15    16   ar
     2    15    20   ar
     3    15     6    1
     4    16    17   ar
     5    16    21    2
     6    17    18   ar
     7    17    23    1
     8    18    19   ar
     9    18    22    2
    10    19    20   ar
    11     6     7    1
    12     6    11    1
    13     7     8    1
    14     7     9    1
    15     8    13    1
    16     9    10    1
    17     9    12    1
    18    10    11    1
    19    10     5    1
    20    12    14    1
    21     5     4    1
    22     4     1    1
    23     1     2    2
    24     1     3    1
    25     1    24    1
    26    24    25    1
    27    25    26    2
    28    25    27    1
    29    25    28    1
    30    28    29    1
    31    29    30    1
    32    29    37    1
    33    30    31    1
    34    30    34    1
    35    31    32    1
    36    31    35    1
    37    32    33    1
    38    32    36    1
    39    33    41    1
    40    33    37    1
    41    41    42    1
    42    34    38    1
    43    35    39    1
    44    36    40    1
    45    42    43    1
@<TRIPOS>MOLECULE
GDU
 43 45 0 0 0
SMALL
GASTEIGER

@<TRIPOS>ATOM
      1 P          22.2248   70.5956    0.0463 P.3     1  UNL1        0.2189
      2 O          21.2924   71.0820    1.0872 O.2     1  UNL1       -0.5170
      3 O          23.4607   69.8361    0.7454 O.3     1  UNL1       -0.4371
      4 O          21.4539   69.5781   -0.9322 O.3     1  UNL1       -0.3112
      5 C          21.2779   70.2551   -2.1776 C.3     1  UNL1        0.1811
      6 C          18.4366   71.2385   -4.1493 C.3     1  UNL1        0.2383
      7 C          18.5337   69.7038   -4.3451 C.3     1  UNL1        0.1895
      8 O          17.2401   69.1340   -4.5576 O.3     1  UNL1       -0.3779
      9 C          19.1263   69.2401   -2.9889 C.3     1  UNL1        0.1713
     10 C          19.7882   70.5075   -2.4168 C.3     1  UNL1        0.1764
     11 O          19.6200   71.5563   -3.3863 O.3     1  UNL1       -0.3308
     12 O          18.0889   68.7751   -2.1232 O.3     1  UNL1       -0.3794
     13 H          17.3700   68.1822   -4.6720 H       1  UNL1        0.2106
     14 H          17.6752   68.0197   -2.5624 H       1  UNL1        0.2105
     15 N          18.4550   71.9276   -5.4406 N.ar    1  UNL1       -0.2551
     16 C          19.1770   71.4219   -6.4561 C.ar    1  UNL1        0.3323
     17 N          19.2080   72.0340   -7.6546 N.ar    1  UNL1       -0.2743
     18 C          18.5201   73.1747   -7.8535 C.ar    1  UNL1        0.2626
     19 C          17.7598   73.7221   -6.7912 C.ar    1  UNL1        0.0795
     20 C          17.7427   73.0856   -5.6008 C.ar    1  UNL1        0.0869
     21 O          19.8023   70.3932   -6.2919 O.2     1  UNL1       -0.2464
     22 O          18.5514   73.7321   -8.9365 O.2     1  UNL1       -0.2670
     23 H          19.7310   71.6526   -8.3776 H       1  UNL1        0.1734
     24 O          22.7772   71.8458   -0.8047 O.3     1  UNL1       -0.2703
     25 P          22.1667   73.1743   -0.1321 P.3     1  UNL1        0.2208
     26 O          22.6847   74.3670   -0.8379 O.2     1  UNL1       -0.5170
     27 O          20.5602   73.1417   -0.2425 O.3     1  UNL1       -0.4371
     28 O          22.5957   73.2382    1.4177 O.3     1  UNL1       -0.2858
     29 C          22.4289   74.5926    1.8389 C.3     1  UNL1        0.2704
     30 C          23.6005   74.9947    2.7362 C.3     1  UNL1        0.1967
     31 C          23.6487   74.0545    3.9445 C.3     1  UNL1        0.1715
     32 C          22.2749   74.0594    4.6243 C.3     1  UNL1        0.1694
     33 C          21.2032   73.7260    3.5834 C.3     1  UNL1        0.1761
     34 O          24.8219   74.8955    2.0016 O.3     1  UNL1       -0.3775
     35 O          24.6442   74.5064    4.8650 O.3     1  UNL1       -0.3794
     36 O          22.0219   75.3502    5.1811 O.3     1  UNL1       -0.3794
     37 O          21.2038   74.7176    2.5574 O.3     1  UNL1       -0.3258
     38 H          24.7442   75.4970    1.2486 H       1  UNL1        0.2106
     39 H          25.4863   74.4984    4.3927 H       1  UNL1        0.2105
     40 H          22.7222   75.5195    5.8246 H       1  UNL1        0.2105
     41 C          19.8305   73.6946    4.2592 C.3     1  UNL1        0.1693
     42 O          19.9855   73.3391    5.6342 O.3     1  UNL1       -0.3794
     43 H          19.1000   73.3313    6.0228 H       1  UNL1        0.2105
@<TRIPOS>BOND
     1    15    16   ar
     2    15    20   ar
     3    15     6    1
     4    16    17   ar
     5    16    21    2
     6    17    18   ar
     7    17    23    1
     8    18    19   ar
     9    18    22    2
    10    19    20   ar
    11     6     7    1
    12     6    11    1
    13     7     8    1
    14     7     9    1
    15     8    13    1
    16     9    10    1
    17     9    12    1
    18    10    11    1
    19    10     5    1
    20    12    14    1
    21     5     4    1
    22     4     1    1
    23     1     2    2
    24     1     3    1
    25     1    24    1
    26    24    25    1
    27    25    26    2
    28    25    27    1
    29    25    28    1
    30    28    29    1
    31    29    30    1
    32    29    37    1
    33    30    31    1
    34    30    34    1
    35    31    32    1
    36    31    35    1
    37    32    33    1
    38    32    36    1
    39    33    41    1
    40    33    37    1
    41    41    42    1
    42    34    38    1
    43    35    39    1
    44    36    40    1
    45    42    43    1
