@<TRIPOS>MOLECULE
UDP-glaA
 43 45 0 0 0
SMALL
GASTEIGER

@<TRIPOS>ATOM
      1 P          22.4751   71.5615   -3.0160 P.3     1  UNL1        0.2189
      2 O          22.2558   73.1501   -2.8024 O.3     1  UNL1       -0.4371
      3 O          23.8753   71.1585   -3.3753 O.2     1  UNL1       -0.5170
      4 O          21.3299   71.1498   -4.0812 O.3     1  UNL1       -0.3112
      5 C          20.4549   70.0829   -3.7566 C.3     1  UNL1        0.1811
      6 O          18.6919   71.3578   -4.7767 O.3     1  UNL1       -0.3308
      7 O          16.8710   70.1152   -2.7440 O.3     1  UNL1       -0.3794
      8 O          16.3611   68.6409   -4.9806 O.3     1  UNL1       -0.3779
      9 C          17.9916   69.5458   -3.4207 C.3     1  UNL1        0.1713
     10 C          17.6354   69.2385   -4.8599 C.3     1  UNL1        0.1895
     11 C          19.0468   70.6327   -3.5787 C.3     1  UNL1        0.1764
     12 C          17.6984   70.6141   -5.5014 C.3     1  UNL1        0.2383
     13 H          17.1573   70.3310   -1.8401 H       1  UNL1        0.2105
     14 H          16.3704   67.8228   -4.4544 H       1  UNL1        0.2106
     15 O          15.8946   70.1697   -7.6285 O.2     1  UNL1       -0.2464
     16 O          19.2562   70.4128  -10.7717 O.2     1  UNL1       -0.2670
     17 N          18.0747   70.5570   -6.8851 N.ar    1  UNL1       -0.2551
     18 N          17.5699   70.2906   -9.1922 N.ar    1  UNL1       -0.2743
     19 C          17.0915   70.3277   -7.8758 C.ar    1  UNL1        0.3323
     20 C          19.4059   70.7271   -7.2489 C.ar    1  UNL1        0.0869
     21 C          19.8461   70.6894   -8.5085 C.ar    1  UNL1        0.0795
     22 C          18.8837   70.4538   -9.6031 C.ar    1  UNL1        0.2626
     23 H          16.8808   70.1264   -9.9211 H       1  UNL1        0.1734
     24 O          21.9269   70.9307   -1.6315 O.3     1  UNL1       -0.2703
     25 P          21.2320   71.6289   -0.3501 P.3     1  UNL1        0.2208
     26 O          21.1446   70.4250    0.7266 O.3     1  UNL1       -0.4371
     27 O          19.9173   72.2916   -0.6472 O.2     1  UNL1       -0.5170
     28 O          22.3609   72.6211    0.2373 O.3     1  UNL1       -0.2858
     29 O          23.3862   71.8182    2.2131 O.3     1  UNL1       -0.3226
     30 O          24.8883   75.6860    1.9621 O.3     1  UNL1       -0.3794
     31 O          22.0925   75.1390    1.3376 O.3     1  UNL1       -0.3775
     32 O          25.3593   73.4486    3.5120 O.3     1  UNL1       -0.3792
     33 C          24.4075   74.4210    1.5161 C.3     1  UNL1        0.1718
     34 C          22.9608   74.2075    1.9742 C.3     1  UNL1        0.1968
     35 C          25.3057   73.3204    2.0873 C.3     1  UNL1        0.1723
     36 C          22.4926   72.7836    1.6489 C.3     1  UNL1        0.2706
     37 C          24.7251   71.9517    1.7387 C.3     1  UNL1        0.1830
     38 H          25.8056   75.7770    1.6524 H       1  UNL1        0.2105
     39 H          21.1898   74.9596    1.6503 H       1  UNL1        0.2106
     40 H          24.5121   73.1470    3.8814 H       1  UNL1        0.2106
     41 O          26.8140   71.1656    2.4615 O.co2   1  UNL1       -0.5466
     42 O          25.0186   69.8014    2.7970 O.co2   1  UNL1       -0.5466
     43 C          25.4991   70.8478    2.3863 C.2     1  UNL1        0.0799
@<TRIPOS>UNITY_ATOM_ATTR
41 1
charge -1
@<TRIPOS>BOND
     1     1     4    1
     2     1    24    1
     3     1     2    1
     4     1     3    2
     5    25    28    1
     6    25    24    1
     7    25    26    1
     8    25    27    2
     9     6    11    1
    10     6    12    1
    11    29    36    1
    12    29    37    1
    13     7     9    1
    14     7    13    1
    15     8    10    1
    16     8    14    1
    17     4     5    1
    18    28    36    1
    19    30    33    1
    20    30    38    1
    21    31    34    1
    22    31    39    1
    23    32    35    1
    24    32    40    1
    25    41    43   ar
    26    15    19    2
    27    42    43   ar
    28    16    22    2
    29    17    12    1
    30    17    19   ar
    31    17    20   ar
    32    18    19   ar
    33    18    22   ar
    34    18    23    1
    35     9    10    1
    36     9    11    1
    37    10    12    1
    38    11     5    1
    39    33    34    1
    40    33    35    1
    41    34    36    1
    42    35    37    1
    43    37    43    1
    44    20    21   ar
    45    21    22   ar
@<TRIPOS>MOLECULE
UDP-glaA
 43 45 0 0 0
SMALL
GASTEIGER

@<TRIPOS>ATOM
      1 P          22.7233   71.3540   -2.3772 P.3     1  UNL1        0.2189
      2 O          22.2145   72.8546   -2.7038 O.3     1  UNL1       -0.4371
      3 O          23.9346   70.9148   -3.1467 O.2     1  UNL1       -0.5170
      4 O          21.4004   70.4436   -2.5691 O.3     1  UNL1       -0.3112
      5 C          20.7226   70.4873   -3.8133 C.3     1  UNL1        0.1811
      6 O          18.8371   71.6041   -4.7992 O.3     1  UNL1       -0.3308
      7 O          17.2034   70.3876   -2.5986 O.3     1  UNL1       -0.3794
      8 O          16.6563   68.7592   -4.7164 O.3     1  UNL1       -0.3779
      9 C          18.3157   69.8401   -3.3062 C.3     1  UNL1        0.1713
     10 C          17.8994   69.4301   -4.7030 C.3     1  UNL1        0.1895
     11 C          19.2975   70.9706   -3.5851 C.3     1  UNL1        0.1764
     12 C          17.8493   70.7671   -5.4227 C.3     1  UNL1        0.2383
     13 H          17.5259   70.6711   -1.7262 H       1  UNL1        0.2105
     14 H          16.7407   67.9752   -4.1470 H       1  UNL1        0.2106
     15 O          15.9372   70.2257   -7.4293 O.2     1  UNL1       -0.2464
     16 O          19.1268   70.3335  -10.7540 O.2     1  UNL1       -0.2670
     17 N          18.1521   70.6489   -6.8205 N.ar    1  UNL1       -0.2551
     18 N          17.5269   70.2792   -9.0835 N.ar    1  UNL1       -0.2743
     19 C          17.1188   70.3742   -7.7465 C.ar    1  UNL1        0.3323
     20 C          19.4615   70.8046   -7.2616 C.ar    1  UNL1        0.0869
     21 C          19.8345   70.7116   -8.5399 C.ar    1  UNL1        0.0795
     22 C          18.8166   70.4259   -9.5703 C.ar    1  UNL1        0.2626
     23 H          16.8008   70.0817   -9.7668 H       1  UNL1        0.1734
     24 O          22.9175   71.3785   -0.7720 O.3     1  UNL1       -0.2703
     25 P          21.8540   71.6201    0.4211 P.3     1  UNL1        0.2208
     26 O          21.7846   70.1797    1.1536 O.3     1  UNL1       -0.4371
     27 O          20.5244   72.1477   -0.0364 O.2     1  UNL1       -0.5170
     28 O          22.6251   72.5746    1.4691 O.3     1  UNL1       -0.2858
     29 O          24.1416   72.5451    3.2854 O.3     1  UNL1       -0.3226
     30 O          20.8642   74.5123    4.9189 O.3     1  UNL1       -0.3794
     31 O          20.4894   72.2021    3.1787 O.3     1  UNL1       -0.3775
     32 O          23.4651   73.9765    5.6796 O.3     1  UNL1       -0.3792
     33 C          21.8046   74.1029    3.9298 C.3     1  UNL1        0.1718
     34 C          21.7445   72.5845    3.7313 C.3     1  UNL1        0.1968
     35 C          23.2084   74.5173    4.3794 C.3     1  UNL1        0.1723
     36 C          22.8667   72.1139    2.7979 C.3     1  UNL1        0.2706
     37 C          24.2442   73.9633    3.4035 C.3     1  UNL1        0.1830
     38 H          20.9389   75.4773    5.0130 H       1  UNL1        0.2105
     39 H          20.5017   71.2371    3.0626 H       1  UNL1        0.2106
     40 H          23.6201   73.0208    5.5916 H       1  UNL1        0.2106
     41 O          25.7249   75.4656    4.4303 O.co2   1  UNL1       -0.5466
     42 O          26.5750   73.4543    3.7752 O.co2   1  UNL1       -0.5466
     43 C          25.6382   74.2335    3.8734 C.2     1  UNL1        0.0799
@<TRIPOS>UNITY_ATOM_ATTR
41 1
charge -1
@<TRIPOS>BOND
     1     1     4    1
     2     1    24    1
     3     1     2    1
     4     1     3    2
     5    25    28    1
     6    25    24    1
     7    25    26    1
     8    25    27    2
     9     6    11    1
    10     6    12    1
    11    29    36    1
    12    29    37    1
    13     7     9    1
    14     7    13    1
    15     8    10    1
    16     8    14    1
    17     4     5    1
    18    28    36    1
    19    30    33    1
    20    30    38    1
    21    31    34    1
    22    31    39    1
    23    32    35    1
    24    32    40    1
    25    41    43   ar
    26    15    19    2
    27    42    43   ar
    28    16    22    2
    29    17    12    1
    30    17    19   ar
    31    17    20   ar
    32    18    19   ar
    33    18    22   ar
    34    18    23    1
    35     9    10    1
    36     9    11    1
    37    10    12    1
    38    11     5    1
    39    33    34    1
    40    33    35    1
    41    34    36    1
    42    35    37    1
    43    37    43    1
    44    20    21   ar
    45    21    22   ar
@<TRIPOS>MOLECULE
UDP-glaA
 43 45 0 0 0
SMALL
GASTEIGER

@<TRIPOS>ATOM
      1 P          21.8008   72.4319   -4.8141 P.3     1  UNL1        0.2189
      2 O          20.9416   73.7803   -5.0612 O.3     1  UNL1       -0.4371
      3 O          23.0418   72.3102   -5.6490 O.2     1  UNL1       -0.5170
      4 O          20.7182   71.2430   -4.9865 O.3     1  UNL1       -0.3112
      5 C          20.0872   70.7278   -3.8265 C.3     1  UNL1        0.1811
      6 O          18.3306   71.7923   -5.0737 O.3     1  UNL1       -0.3308
      7 O          16.4511   70.6739   -3.0224 O.3     1  UNL1       -0.3794
      8 O          16.1480   68.9479   -5.1116 O.3     1  UNL1       -0.3779
      9 C          17.6363   70.0976   -3.5709 C.3     1  UNL1        0.1713
     10 C          17.3829   69.6223   -4.9860 C.3     1  UNL1        0.1895
     11 C          18.6464   71.2169   -3.7867 C.3     1  UNL1        0.1764
     12 C          17.4192   70.9245   -5.7677 C.3     1  UNL1        0.2383
     13 H          16.6716   70.9984   -2.1326 H       1  UNL1        0.2105
     14 H          16.1643   68.1912   -4.5006 H       1  UNL1        0.2106
     15 O          15.7514   70.2759   -7.9524 O.2     1  UNL1       -0.2464
     16 O          19.3018   70.2495  -10.8905 O.2     1  UNL1       -0.2670
     17 N          17.8809   70.7428   -7.1142 N.ar    1  UNL1       -0.2551
     18 N          17.5205   70.2627   -9.4139 N.ar    1  UNL1       -0.2743
     19 C          16.9613   70.4176   -8.1386 C.ar    1  UNL1        0.3323
     20 C          19.2321   70.8868   -7.4091 C.ar    1  UNL1        0.0869
     21 C          19.7497   70.7363   -8.6302 C.ar    1  UNL1        0.0795
     22 C          18.8574   70.3953   -9.7559 C.ar    1  UNL1        0.2626
     23 H          16.8781   70.0281  -10.1659 H       1  UNL1        0.1734
     24 O          22.0623   72.4563   -3.2184 O.3     1  UNL1       -0.2703
     25 P          23.3940   72.1438   -2.3574 P.3     1  UNL1        0.2208
     26 O          24.2916   73.4730   -2.5666 O.3     1  UNL1       -0.4371
     27 O          24.0844   70.8640   -2.7333 O.2     1  UNL1       -0.5170
     28 O          22.9122   72.2143   -0.8189 O.3     1  UNL1       -0.2858
     29 O          24.3326   71.1612    0.7536 O.3     1  UNL1       -0.3226
     30 O          20.9148   71.8764    3.0090 O.3     1  UNL1       -0.3794
     31 O          20.7034   70.9503    0.2515 O.3     1  UNL1       -0.3775
     32 O          23.4882   70.9964    3.4920 O.3     1  UNL1       -0.3792
     33 C          21.9176   72.0925    2.0200 C.3     1  UNL1        0.1718
     34 C          21.9155   70.9504    0.9983 C.3     1  UNL1        0.1968
     35 C          23.2824   72.1767    2.7089 C.3     1  UNL1        0.1723
     36 C          23.0989   71.0841    0.0318 C.3     1  UNL1        0.2706
     37 C          24.3844   72.2657    1.6553 C.3     1  UNL1        0.1830
     38 H          20.9541   72.6202    3.6341 H       1  UNL1        0.2105
     39 H          20.7520   70.2186   -0.3865 H       1  UNL1        0.2106
     40 H          23.6774   70.2560    2.8909 H       1  UNL1        0.2106
     41 O          26.3175   71.0079    2.0850 O.co2   1  UNL1       -0.5466
     42 O          26.2707   73.1439    2.8802 O.co2   1  UNL1       -0.5466
     43 C          25.7429   72.2194    2.2791 C.2     1  UNL1        0.0799
@<TRIPOS>UNITY_ATOM_ATTR
41 1
charge -1
@<TRIPOS>BOND
     1     1     4    1
     2     1    24    1
     3     1     2    1
     4     1     3    2
     5    25    28    1
     6    25    24    1
     7    25    26    1
     8    25    27    2
     9     6    11    1
    10     6    12    1
    11    29    36    1
    12    29    37    1
    13     7     9    1
    14     7    13    1
    15     8    10    1
    16     8    14    1
    17     4     5    1
    18    28    36    1
    19    30    33    1
    20    30    38    1
    21    31    34    1
    22    31    39    1
    23    32    35    1
    24    32    40    1
    25    41    43   ar
    26    15    19    2
    27    42    43   ar
    28    16    22    2
    29    17    12    1
    30    17    19   ar
    31    17    20   ar
    32    18    19   ar
    33    18    22   ar
    34    18    23    1
    35     9    10    1
    36     9    11    1
    37    10    12    1
    38    11     5    1
    39    33    34    1
    40    33    35    1
    41    34    36    1
    42    35    37    1
    43    37    43    1
    44    20    21   ar
    45    21    22   ar
@<TRIPOS>MOLECULE
UDP-glaA
 43 45 0 0 0
SMALL
GASTEIGER

@<TRIPOS>ATOM
      1 P          22.6523   71.6117   -2.7879 P.3     1  UNL1        0.2189
      2 O          24.1354   71.2161   -3.2990 O.3     1  UNL1       -0.4371
      3 O          22.2444   70.9880   -1.4853 O.2     1  UNL1       -0.5170
      4 O          21.7023   71.2800   -4.0540 O.3     1  UNL1       -0.3112
      5 C          21.5849   72.2463   -5.0844 C.3     1  UNL1        0.1811
      6 O          20.4780   70.3789   -6.1149 O.3     1  UNL1       -0.3308
      7 O          20.7330   71.8899   -8.6924 O.3     1  UNL1       -0.3794
      8 O          18.1376   72.3442   -7.9901 O.3     1  UNL1       -0.3779
      9 C          20.4895   72.3846   -7.3757 C.3     1  UNL1        0.1713
     10 C          19.0656   72.0850   -6.9570 C.3     1  UNL1        0.1895
     11 C          21.2939   71.5368   -6.3991 C.3     1  UNL1        0.1764
     12 C          19.1451   70.6105   -6.5999 C.3     1  UNL1        0.2383
     13 H          21.6656   72.0692   -8.9015 H       1  UNL1        0.2105
     14 H          18.2261   73.2815   -8.2346 H       1  UNL1        0.2106
     15 O          16.4782   69.8238   -7.0940 O.2     1  UNL1       -0.2464
     16 O          15.6311   69.2217   -2.6042 O.2     1  UNL1       -0.2670
     17 N          18.2060   70.2423   -5.5791 N.ar    1  UNL1       -0.2551
     18 N          16.0580   69.5250   -4.8579 N.ar    1  UNL1       -0.2743
     19 C          16.8900   69.8635   -5.9332 C.ar    1  UNL1        0.3323
     20 C          18.5921   70.2590   -4.2434 C.ar    1  UNL1        0.0869
     21 C          17.7872   69.9331   -3.2297 C.ar    1  UNL1        0.0795
     22 C          16.3965   69.5268   -3.5136 C.ar    1  UNL1        0.2626
     23 H          15.1071   69.2500   -5.0887 H       1  UNL1        0.1734
     24 O          22.6919   73.2284   -2.7774 O.3     1  UNL1       -0.2703
     25 P          23.9326   74.2578   -2.6620 P.3     1  UNL1        0.2208
     26 O          23.2150   75.7072   -2.6787 O.3     1  UNL1       -0.4371
     27 O          24.9850   74.0749   -3.7178 O.2     1  UNL1       -0.5170
     28 O          24.4684   74.0847   -1.1497 O.3     1  UNL1       -0.2858
     29 O          23.2470   73.1157    0.6303 O.3     1  UNL1       -0.3226
     30 O          25.8879   75.6149    2.6450 O.3     1  UNL1       -0.3794
     31 O          24.5970   76.4988    0.1837 O.3     1  UNL1       -0.3775
     32 O          24.0652   73.6550    3.3282 O.3     1  UNL1       -0.3792
     33 C          25.4130   74.7287    1.6354 C.3     1  UNL1        0.1718
     34 C          24.2078   75.3392    0.9122 C.3     1  UNL1        0.1968
     35 C          25.0154   73.4019    2.2880 C.3     1  UNL1        0.1723
     36 C          23.5845   74.3258   -0.0557 C.3     1  UNL1        0.2706
     37 C          24.3718   72.4899    1.2458 C.3     1  UNL1        0.1830
     38 H          26.6472   75.1876    3.0769 H       1  UNL1        0.2105
     39 H          23.8058   76.8437   -0.2634 H       1  UNL1        0.2106
     40 H          23.2108   73.8743    2.9194 H       1  UNL1        0.2106
     41 O          24.8202   70.2886    1.9219 O.co2   1  UNL1       -0.5466
     42 O          22.7084   71.0725    2.2725 O.co2   1  UNL1       -0.5466
     43 C          23.8502   71.2329    1.8662 C.2     1  UNL1        0.0799
@<TRIPOS>UNITY_ATOM_ATTR
41 1
charge -1
@<TRIPOS>BOND
     1     1     4    1
     2     1    24    1
     3     1     2    1
     4     1     3    2
     5    25    28    1
     6    25    24    1
     7    25    26    1
     8    25    27    2
     9     6    11    1
    10     6    12    1
    11    29    36    1
    12    29    37    1
    13     7     9    1
    14     7    13    1
    15     8    10    1
    16     8    14    1
    17     4     5    1
    18    28    36    1
    19    30    33    1
    20    30    38    1
    21    31    34    1
    22    31    39    1
    23    32    35    1
    24    32    40    1
    25    41    43   ar
    26    15    19    2
    27    42    43   ar
    28    16    22    2
    29    17    12    1
    30    17    19   ar
    31    17    20   ar
    32    18    19   ar
    33    18    22   ar
    34    18    23    1
    35     9    10    1
    36     9    11    1
    37    10    12    1
    38    11     5    1
    39    33    34    1
    40    33    35    1
    41    34    36    1
    42    35    37    1
    43    37    43    1
    44    20    21   ar
    45    21    22   ar
@<TRIPOS>MOLECULE
UDP-glaA
 43 45 0 0 0
SMALL
GASTEIGER

@<TRIPOS>ATOM
      1 P          21.2348   72.2767   -2.8883 P.3     1  UNL1        0.2189
      2 O          21.3759   70.6785   -3.0963 O.3     1  UNL1       -0.4371
      3 O          19.8663   72.7445   -2.4877 O.2     1  UNL1       -0.5170
      4 O          21.8172   72.9014   -4.2616 O.3     1  UNL1       -0.3112
      5 C          22.2843   72.0152   -5.2644 C.3     1  UNL1        0.1811
      6 O          20.9859   71.6237   -7.2482 O.3     1  UNL1       -0.3308
      7 O          21.3041   74.5522   -7.8087 O.3     1  UNL1       -0.3794
      8 O          18.7804   74.4125   -6.7852 O.3     1  UNL1       -0.3779
      9 C          21.1426   73.8844   -6.5574 C.3     1  UNL1        0.1713
     10 C          19.7097   73.4254   -6.3881 C.3     1  UNL1        0.1895
     11 C          21.8944   72.5618   -6.6304 C.3     1  UNL1        0.1764
     12 C          19.6663   72.1923   -7.2744 C.3     1  UNL1        0.2383
     13 H          22.2428   74.7925   -7.8899 H       1  UNL1        0.2105
     14 H          18.9459   75.2044   -6.2452 H       1  UNL1        0.2106
     15 O          17.8928   70.7591   -8.9405 O.2     1  UNL1       -0.2464
     16 O          16.1026   68.4629   -5.3682 O.2     1  UNL1       -0.2670
     17 N          18.7267   71.2138   -6.8067 N.ar    1  UNL1       -0.2551
     18 N          17.0021   69.6170   -7.1605 N.ar    1  UNL1       -0.2743
     19 C          17.8801   70.5511   -7.7259 C.ar    1  UNL1        0.3323
     20 C          18.6502   70.9192   -5.4499 C.ar    1  UNL1        0.0869
     21 C          17.8081   70.0256   -4.9264 C.ar    1  UNL1        0.0795
     22 C          16.8893   69.2904   -5.8180 C.ar    1  UNL1        0.2626
     23 H          16.3836   69.1288   -7.8025 H       1  UNL1        0.1734
     24 O          22.3999   72.6068   -1.8164 O.3     1  UNL1       -0.2703
     25 P          22.3635   72.6893   -0.2026 P.3     1  UNL1        0.2208
     26 O          21.2071   71.6314    0.1971 O.3     1  UNL1       -0.4371
     27 O          22.1510   74.0740    0.3388 O.2     1  UNL1       -0.5170
     28 O          23.7381   71.9910    0.2736 O.3     1  UNL1       -0.2858
     29 O          24.5594   72.3689    2.4604 O.3     1  UNL1       -0.3226
     30 O          20.4532   72.2108    3.0874 O.3     1  UNL1       -0.3794
     31 O          21.7441   70.3499    1.2500 O.3     1  UNL1       -0.3775
     32 O          22.6861   72.8563    4.5798 O.3     1  UNL1       -0.3792
     33 C          21.6804   72.4814    2.4158 C.3     1  UNL1        0.1718
     34 C          22.4506   71.1805    2.1653 C.3     1  UNL1        0.1968
     35 C          22.5187   73.4286    3.2786 C.3     1  UNL1        0.1723
     36 C          23.8454   71.4753    1.5998 C.3     1  UNL1        0.2706
     37 C          23.8949   73.6180    2.6443 C.3     1  UNL1        0.1830
     38 H          20.0016   73.0606    3.2270 H       1  UNL1        0.2105
     39 H          22.2729   69.5454    1.1155 H       1  UNL1        0.2106
     40 H          23.3211   72.1229    4.5153 H       1  UNL1        0.2106
     41 O          25.4601   75.3595    2.7896 O.co2   1  UNL1       -0.5466
     42 O          24.9128   74.2910    4.7277 O.co2   1  UNL1       -0.5466
     43 C          24.7933   74.4329    3.5193 C.2     1  UNL1        0.0799
@<TRIPOS>UNITY_ATOM_ATTR
41 1
charge -1
@<TRIPOS>BOND
     1     1     4    1
     2     1    24    1
     3     1     2    1
     4     1     3    2
     5    25    28    1
     6    25    24    1
     7    25    26    1
     8    25    27    2
     9     6    11    1
    10     6    12    1
    11    29    36    1
    12    29    37    1
    13     7     9    1
    14     7    13    1
    15     8    10    1
    16     8    14    1
    17     4     5    1
    18    28    36    1
    19    30    33    1
    20    30    38    1
    21    31    34    1
    22    31    39    1
    23    32    35    1
    24    32    40    1
    25    41    43   ar
    26    15    19    2
    27    42    43   ar
    28    16    22    2
    29    17    12    1
    30    17    19   ar
    31    17    20   ar
    32    18    19   ar
    33    18    22   ar
    34    18    23    1
    35     9    10    1
    36     9    11    1
    37    10    12    1
    38    11     5    1
    39    33    34    1
    40    33    35    1
    41    34    36    1
    42    35    37    1
    43    37    43    1
    44    20    21   ar
    45    21    22   ar
@<TRIPOS>MOLECULE
UDP-glaA
 43 45 0 0 0
SMALL
GASTEIGER

@<TRIPOS>ATOM
      1 P          22.8128   71.5195   -3.1314 P.3     1  UNL1        0.2189
      2 O          22.4080   72.1104   -4.5821 O.3     1  UNL1       -0.4371
      3 O          24.1529   70.8466   -3.0736 O.2     1  UNL1       -0.5170
      4 O          21.5470   70.6020   -2.7174 O.3     1  UNL1       -0.3112
      5 C          20.6800   70.1424   -3.7403 C.3     1  UNL1        0.1811
      6 O          18.8797   71.4278   -4.6789 O.3     1  UNL1       -0.3308
      7 O          17.1480   70.2009   -2.5606 O.3     1  UNL1       -0.3794
      8 O          16.5235   68.7267   -4.7680 O.3     1  UNL1       -0.3779
      9 C          18.2316   69.6228   -3.2881 C.3     1  UNL1        0.1713
     10 C          17.8061   69.3157   -4.7084 C.3     1  UNL1        0.1895
     11 C          19.2856   70.7021   -3.4974 C.3     1  UNL1        0.1764
     12 C          17.8483   70.6899   -5.3547 C.3     1  UNL1        0.2383
     13 H          17.4779   70.4161   -1.6715 H       1  UNL1        0.2105
     14 H          16.5520   67.9094   -4.2413 H       1  UNL1        0.2106
     15 O          15.9435   70.2556   -7.3940 O.2     1  UNL1       -0.2464
     16 O          19.1554   70.4698  -10.6919 O.2     1  UNL1       -0.2670
     17 N          18.1588   70.6281   -6.7544 N.ar    1  UNL1       -0.2551
     18 N          17.5442   70.3620   -9.0348 N.ar    1  UNL1       -0.2743
     19 C          17.1286   70.4045   -7.6975 C.ar    1  UNL1        0.3323
     20 C          19.4726   70.7880   -7.1806 C.ar    1  UNL1        0.0869
     21 C          19.8528   70.7454   -8.4595 C.ar    1  UNL1        0.0795
     22 C          18.8385   70.5151   -9.5072 C.ar    1  UNL1        0.2626
     23 H          16.8205   70.2018   -9.7303 H       1  UNL1        0.1734
     24 O          22.6621   72.8049   -2.1618 O.3     1  UNL1       -0.2703
     25 P          23.5683   74.1354   -2.0164 P.3     1  UNL1        0.2208
     26 O          22.4745   75.3085   -1.8078 O.3     1  UNL1       -0.4371
     27 O          24.5133   74.3652   -3.1610 O.2     1  UNL1       -0.5170
     28 O          24.2863   73.9861   -0.5789 O.3     1  UNL1       -0.2858
     29 O          22.5533   73.4250    0.9315 O.3     1  UNL1       -0.3226
     30 O          25.9149   73.2877    3.3728 O.3     1  UNL1       -0.3794
     31 O          25.6117   75.4015    1.3864 O.3     1  UNL1       -0.3775
     32 O          23.2457   72.6127    3.5960 O.3     1  UNL1       -0.3792
     33 C          25.1321   73.1583    2.1893 C.3     1  UNL1        0.1718
     34 C          24.5635   74.5191    1.7731 C.3     1  UNL1        0.1968
     35 C          23.9908   72.1730    2.4557 C.3     1  UNL1        0.1723
     36 C          23.5831   74.3636    0.6039 C.3     1  UNL1        0.2706
     37 C          23.0586   72.1285    1.2469 C.3     1  UNL1        0.1830
     38 H          26.2515   72.4041    3.6000 H       1  UNL1        0.2105
     39 H          25.2041   76.2437    1.1232 H       1  UNL1        0.2106
     40 H          22.7115   73.3829    3.3377 H       1  UNL1        0.2106
     41 O          20.9616   71.9399    2.2818 O.co2   1  UNL1       -0.5466
     42 O          21.6990   70.1390    1.0943 O.co2   1  UNL1       -0.5466
     43 C          21.8583   71.2766    1.5126 C.2     1  UNL1        0.0799
@<TRIPOS>UNITY_ATOM_ATTR
41 1
charge -1
@<TRIPOS>BOND
     1     1     4    1
     2     1    24    1
     3     1     2    1
     4     1     3    2
     5    25    28    1
     6    25    24    1
     7    25    26    1
     8    25    27    2
     9     6    11    1
    10     6    12    1
    11    29    36    1
    12    29    37    1
    13     7     9    1
    14     7    13    1
    15     8    10    1
    16     8    14    1
    17     4     5    1
    18    28    36    1
    19    30    33    1
    20    30    38    1
    21    31    34    1
    22    31    39    1
    23    32    35    1
    24    32    40    1
    25    41    43   ar
    26    15    19    2
    27    42    43   ar
    28    16    22    2
    29    17    12    1
    30    17    19   ar
    31    17    20   ar
    32    18    19   ar
    33    18    22   ar
    34    18    23    1
    35     9    10    1
    36     9    11    1
    37    10    12    1
    38    11     5    1
    39    33    34    1
    40    33    35    1
    41    34    36    1
    42    35    37    1
    43    37    43    1
    44    20    21   ar
    45    21    22   ar
@<TRIPOS>MOLECULE
UDP-glaA
 43 45 0 0 0
SMALL
GASTEIGER

@<TRIPOS>ATOM
      1 P          22.9206   71.3386   -2.2866 P.3     1  UNL1        0.2189
      2 O          22.5633   72.9001   -2.5134 O.3     1  UNL1       -0.4371
      3 O          24.1251   70.8496   -3.0362 O.2     1  UNL1       -0.5170
      4 O          21.5337   70.5710   -2.6072 O.3     1  UNL1       -0.3112
      5 C          20.8957   70.8152   -3.8493 C.3     1  UNL1        0.1811
      6 O          18.9252   71.7979   -4.8113 O.3     1  UNL1       -0.3308
      7 O          17.4223   70.5631   -2.5292 O.3     1  UNL1       -0.3794
      8 O          16.9067   68.8435   -4.5817 O.3     1  UNL1       -0.3779
      9 C          18.5429   70.0550   -3.2529 C.3     1  UNL1        0.1713
     10 C          18.1110   69.5805   -4.6244 C.3     1  UNL1        0.1895
     11 C          19.4531   71.2277   -3.5934 C.3     1  UNL1        0.1764
     12 C          17.9677   70.8901   -5.3809 C.3     1  UNL1        0.2383
     13 H          17.7530   70.8902   -1.6752 H       1  UNL1        0.2105
     14 H          17.0497   68.0829   -3.9924 H       1  UNL1        0.2106
     15 O          16.0421   70.1458   -7.3080 O.2     1  UNL1       -0.2464
     16 O          19.1178   70.3650  -10.7329 O.2     1  UNL1       -0.2670
     17 N          18.2375   70.7457   -6.7829 N.ar    1  UNL1       -0.2551
     18 N          17.5751   70.2549   -9.0121 N.ar    1  UNL1       -0.2743
     19 C          17.2002   70.3667   -7.6667 C.ar    1  UNL1        0.3323
     20 C          19.5190   70.9786   -7.2697 C.ar    1  UNL1        0.0869
     21 C          19.8605   70.8682   -8.5554 C.ar    1  UNL1        0.0795
     22 C          18.8362   70.4759   -9.5436 C.ar    1  UNL1        0.2626
     23 H          16.8456   69.9830   -9.6656 H       1  UNL1        0.1734
     24 O          23.0359   71.2233   -0.6777 O.3     1  UNL1       -0.2703
     25 P          21.9353   71.4540    0.4834 P.3     1  UNL1        0.2208
     26 O          21.6125   69.9530    0.9923 O.3     1  UNL1       -0.4371
     27 O          20.7287   72.2322    0.0426 O.2     1  UNL1       -0.5170
     28 O          22.7569   72.1289    1.6973 O.3     1  UNL1       -0.2858
     29 O          22.1003   73.7881    3.2514 O.3     1  UNL1       -0.3226
     30 O          26.1534   74.5854    2.7864 O.3     1  UNL1       -0.3794
     31 O          24.5073   73.8850    0.4829 O.3     1  UNL1       -0.3775
     32 O          24.1164   75.4501    4.4396 O.3     1  UNL1       -0.3792
     33 C          24.9564   73.8170    2.8704 C.3     1  UNL1        0.1718
     34 C          23.9807   74.2245    1.7613 C.3     1  UNL1        0.1968
     35 C          24.3159   74.0465    4.2421 C.3     1  UNL1        0.1723
     36 C          22.6268   73.5279    1.9460 C.3     1  UNL1        0.2706
     37 C          22.9607   73.3447    4.2995 C.3     1  UNL1        0.1830
     38 H          26.7389   74.2963    3.5069 H       1  UNL1        0.2105
     39 H          23.8530   74.1524   -0.1843 H       1  UNL1        0.2106
     40 H          23.3715   75.7373    3.8848 H       1  UNL1        0.2106
     41 O          23.0548   73.4604    6.6408 O.co2   1  UNL1       -0.5466
     42 O          21.0784   74.0205    5.6523 O.co2   1  UNL1       -0.5466
     43 C          22.2405   73.6491    5.5745 C.2     1  UNL1        0.0799
@<TRIPOS>UNITY_ATOM_ATTR
41 1
charge -1
@<TRIPOS>BOND
     1     1     4    1
     2     1    24    1
     3     1     2    1
     4     1     3    2
     5    25    28    1
     6    25    24    1
     7    25    26    1
     8    25    27    2
     9     6    11    1
    10     6    12    1
    11    29    36    1
    12    29    37    1
    13     7     9    1
    14     7    13    1
    15     8    10    1
    16     8    14    1
    17     4     5    1
    18    28    36    1
    19    30    33    1
    20    30    38    1
    21    31    34    1
    22    31    39    1
    23    32    35    1
    24    32    40    1
    25    41    43   ar
    26    15    19    2
    27    42    43   ar
    28    16    22    2
    29    17    12    1
    30    17    19   ar
    31    17    20   ar
    32    18    19   ar
    33    18    22   ar
    34    18    23    1
    35     9    10    1
    36     9    11    1
    37    10    12    1
    38    11     5    1
    39    33    34    1
    40    33    35    1
    41    34    36    1
    42    35    37    1
    43    37    43    1
    44    20    21   ar
    45    21    22   ar
@<TRIPOS>MOLECULE
UDP-glaA
 43 45 0 0 0
SMALL
GASTEIGER

@<TRIPOS>ATOM
      1 P          20.8316   73.0904   -1.8202 P.3     1  UNL1        0.2189
      2 O          19.2749   73.4990   -1.9853 O.3     1  UNL1       -0.4371
      3 O          21.7436   74.2164   -1.4298 O.2     1  UNL1       -0.5170
      4 O          21.1888   72.3465   -3.2111 O.3     1  UNL1       -0.3112
      5 C          21.2594   73.1221   -4.3954 C.3     1  UNL1        0.1811
      6 O          20.7733   70.9426   -5.2831 O.3     1  UNL1       -0.3308
      7 O          21.4175   72.1000   -7.9733 O.3     1  UNL1       -0.3794
      8 O          18.6907   72.1059   -7.9599 O.3     1  UNL1       -0.3779
      9 C          20.7710   72.7127   -6.8577 C.3     1  UNL1        0.1713
     10 C          19.3573   72.1888   -6.7172 C.3     1  UNL1        0.1895
     11 C          21.4315   72.1921   -5.5880 C.3     1  UNL1        0.1764
     12 C          19.5869   70.8263   -6.0856 C.3     1  UNL1        0.2383
     13 H          22.3297   72.4359   -7.9999 H       1  UNL1        0.2105
     14 H          18.6817   72.9981   -8.3473 H       1  UNL1        0.2106
     15 O          17.1855   69.6854   -7.0382 O.2     1  UNL1       -0.2464
     16 O          15.4635   69.3042   -2.7805 O.2     1  UNL1       -0.2670
     17 N          18.4947   70.4191   -5.2485 N.ar    1  UNL1       -0.2551
     18 N          16.3294   69.4968   -4.9175 N.ar    1  UNL1       -0.2743
     19 C          17.3324   69.8576   -5.8268 C.ar    1  UNL1        0.3323
     20 C          18.5816   70.5778   -3.8698 C.ar    1  UNL1        0.0869
     21 C          17.6168   70.2284   -3.0161 C.ar    1  UNL1        0.0795
     22 C          16.3698   69.6355   -3.5387 C.ar    1  UNL1        0.2626
     23 H          15.4843   69.0916   -5.3109 H       1  UNL1        0.1734
     24 O          20.7755   71.8706   -0.7600 O.3     1  UNL1       -0.2703
     25 P          21.9264   71.2209    0.1707 P.3     1  UNL1        0.2208
     26 O          23.1867   71.0902   -0.8347 O.3     1  UNL1       -0.4371
     27 O          21.5277   69.9346    0.8356 O.2     1  UNL1       -0.5170
     28 O          22.3396   72.3995    1.1925 O.3     1  UNL1       -0.2858
     29 O          24.1397   72.4842    2.7261 O.3     1  UNL1       -0.3226
     30 O          21.2520   74.7773    4.6450 O.3     1  UNL1       -0.3794
     31 O          20.5129   72.3187    3.2612 O.3     1  UNL1       -0.3775
     32 O          23.9252   74.1926    5.0226 O.3     1  UNL1       -0.3792
     33 C          21.9976   74.2184    3.5670 C.3     1  UNL1        0.1718
     34 C          21.8552   72.6927    3.5532 C.3     1  UNL1        0.1968
     35 C          23.4700   74.6057    3.7299 C.3     1  UNL1        0.1723
     36 C          22.7874   72.0696    2.5066 C.3     1  UNL1        0.2706
     37 C          24.3071   73.8998    2.6655 C.3     1  UNL1        0.1830
     38 H          21.3730   75.7417    4.6164 H       1  UNL1        0.2105
     39 H          20.4739   71.3475    3.2539 H       1  UNL1        0.2106
     40 H          24.0317   73.2263    5.0183 H       1  UNL1        0.2106
     41 O          25.9976   75.4486    3.1627 O.co2   1  UNL1       -0.5466
     42 O          26.6420   73.2957    2.7795 O.co2   1  UNL1       -0.5466
     43 C          25.7685   74.1466    2.8661 C.2     1  UNL1        0.0799
@<TRIPOS>UNITY_ATOM_ATTR
41 1
charge -1
@<TRIPOS>BOND
     1     1     4    1
     2     1    24    1
     3     1     2    1
     4     1     3    2
     5    25    28    1
     6    25    24    1
     7    25    26    1
     8    25    27    2
     9     6    11    1
    10     6    12    1
    11    29    36    1
    12    29    37    1
    13     7     9    1
    14     7    13    1
    15     8    10    1
    16     8    14    1
    17     4     5    1
    18    28    36    1
    19    30    33    1
    20    30    38    1
    21    31    34    1
    22    31    39    1
    23    32    35    1
    24    32    40    1
    25    41    43   ar
    26    15    19    2
    27    42    43   ar
    28    16    22    2
    29    17    12    1
    30    17    19   ar
    31    17    20   ar
    32    18    19   ar
    33    18    22   ar
    34    18    23    1
    35     9    10    1
    36     9    11    1
    37    10    12    1
    38    11     5    1
    39    33    34    1
    40    33    35    1
    41    34    36    1
    42    35    37    1
    43    37    43    1
    44    20    21   ar
    45    21    22   ar
@<TRIPOS>MOLECULE
UDP-glaA
 43 45 0 0 0
SMALL
GASTEIGER

@<TRIPOS>ATOM
      1 P          21.2787   71.5562   -2.7012 P.3     1  UNL1        0.2189
      2 O          21.8603   73.0450   -2.4505 O.3     1  UNL1       -0.4371
      3 O          21.8441   70.8491   -3.8980 O.2     1  UNL1       -0.5170
      4 O          19.6742   71.7588   -2.6974 O.3     1  UNL1       -0.3112
      5 C          19.0629   72.3459   -3.8335 C.3     1  UNL1        0.1811
      6 O          17.1448   72.0358   -5.2475 O.3     1  UNL1       -0.3308
      7 O          16.0217   70.3488   -3.0376 O.3     1  UNL1       -0.3794
      8 O          16.9444   68.4840   -4.8002 O.3     1  UNL1       -0.3779
      9 C          17.3736   70.4781   -3.4773 C.3     1  UNL1        0.1713
     10 C          17.5707   69.7501   -4.7903 C.3     1  UNL1        0.1895
     11 C          17.5997   71.9293   -3.8804 C.3     1  UNL1        0.1764
     12 C          16.9490   70.7169   -5.7837 C.3     1  UNL1        0.2383
     13 H          15.9338   70.8619   -2.2163 H       1  UNL1        0.2105
     14 H          17.3210   67.9654   -4.0684 H       1  UNL1        0.2106
     15 O          15.5264   70.5782   -8.2193 O.2     1  UNL1       -0.2464
     16 O          19.4127   70.4346  -10.6922 O.2     1  UNL1       -0.2670
     17 N          17.5635   70.6431   -7.0784 N.ar    1  UNL1       -0.2551
     18 N          17.4626   70.5063   -9.4491 N.ar    1  UNL1       -0.2743
     19 C          16.7586   70.5760   -8.2397 C.ar    1  UNL1        0.3323
     20 C          18.9496   70.6373   -7.1886 C.ar    1  UNL1        0.0869
     21 C          19.6058   70.5709   -8.3491 C.ar    1  UNL1        0.0795
     22 C          18.8396   70.4973   -9.6089 C.ar    1  UNL1        0.2626
     23 H          16.9044   70.4567  -10.2971 H       1  UNL1        0.1734
     24 O          21.5547   70.8170   -1.2896 O.3     1  UNL1       -0.2703
     25 P          21.9480   71.4133    0.1604 P.3     1  UNL1        0.2208
     26 O          21.7554   70.1463    1.1473 O.3     1  UNL1       -0.4371
     27 O          21.1665   72.6329    0.5575 O.2     1  UNL1       -0.5170
     28 O          23.5444   71.6379    0.0910 O.3     1  UNL1       -0.2858
     29 O          23.9578   73.8570    0.8008 O.3     1  UNL1       -0.3226
     30 O          21.8451   72.2920    4.0205 O.3     1  UNL1       -0.3794
     31 O          23.8764   70.6972    2.6654 O.3     1  UNL1       -0.3775
     32 O          22.7539   74.7801    3.2374 O.3     1  UNL1       -0.3792
     33 C          22.2367   72.4911    2.6650 C.3     1  UNL1        0.1718
     34 C          23.7046   72.0968    2.4694 C.3     1  UNL1        0.1968
     35 C          22.0376   73.9655    2.3034 C.3     1  UNL1        0.1723
     36 C          24.1834   72.4675    1.0603 C.3     1  UNL1        0.2706
     37 C          22.5840   74.2285    0.9019 C.3     1  UNL1        0.1830
     38 H          20.9125   72.5560    4.0982 H       1  UNL1        0.2105
     39 H          24.8162   70.4942    2.5223 H       1  UNL1        0.2106
     40 H          23.7037   74.7125    3.0414 H       1  UNL1        0.2106
     41 O          21.4714   76.2777    1.1604 O.co2   1  UNL1       -0.5466
     42 O          23.3251   76.2631   -0.1665 O.co2   1  UNL1       -0.5466
     43 C          22.5285   75.6828    0.5569 C.2     1  UNL1        0.0799
@<TRIPOS>UNITY_ATOM_ATTR
41 1
charge -1
@<TRIPOS>BOND
     1     1     4    1
     2     1    24    1
     3     1     2    1
     4     1     3    2
     5    25    28    1
     6    25    24    1
     7    25    26    1
     8    25    27    2
     9     6    11    1
    10     6    12    1
    11    29    36    1
    12    29    37    1
    13     7     9    1
    14     7    13    1
    15     8    10    1
    16     8    14    1
    17     4     5    1
    18    28    36    1
    19    30    33    1
    20    30    38    1
    21    31    34    1
    22    31    39    1
    23    32    35    1
    24    32    40    1
    25    41    43   ar
    26    15    19    2
    27    42    43   ar
    28    16    22    2
    29    17    12    1
    30    17    19   ar
    31    17    20   ar
    32    18    19   ar
    33    18    22   ar
    34    18    23    1
    35     9    10    1
    36     9    11    1
    37    10    12    1
    38    11     5    1
    39    33    34    1
    40    33    35    1
    41    34    36    1
    42    35    37    1
    43    37    43    1
    44    20    21   ar
    45    21    22   ar
@<TRIPOS>MOLECULE
UDP-glaA
 43 45 0 0 0
SMALL
GASTEIGER

@<TRIPOS>ATOM
      1 P          23.0179   71.3626   -2.0293 P.3     1  UNL1        0.2189
      2 O          24.1963   70.7277   -2.9379 O.3     1  UNL1       -0.4371
      3 O          21.7011   70.6473   -2.1104 O.2     1  UNL1       -0.5170
      4 O          22.9973   72.9233   -2.4526 O.3     1  UNL1       -0.3112
      5 C          22.0654   73.3471   -3.4330 C.3     1  UNL1        0.1811
      6 O          22.2460   72.1327   -5.4987 O.3     1  UNL1       -0.3308
      7 O          23.4071   74.6433   -6.6564 O.3     1  UNL1       -0.3794
      8 O          20.8319   74.7105   -7.5508 O.3     1  UNL1       -0.3779
      9 C          22.3735   74.4911   -5.6836 C.3     1  UNL1        0.1713
     10 C          21.0946   74.0228   -6.3451 C.3     1  UNL1        0.1895
     11 C          22.7301   73.3018   -4.8015 C.3     1  UNL1        0.1764
     12 C          21.3750   72.5459   -6.5645 C.3     1  UNL1        0.2383
     13 H          24.2146   74.9057   -6.1826 H       1  UNL1        0.2105
     14 H          20.7741   75.6584   -7.3404 H       1  UNL1        0.2106
     15 O          20.2226   71.2932   -8.8179 O.2     1  UNL1       -0.2464
     16 O          16.7923   69.5171   -6.3045 O.2     1  UNL1       -0.2670
     17 N          20.1816   71.7498   -6.5277 N.ar    1  UNL1       -0.2551
     18 N          18.5149   70.4100   -7.5649 N.ar    1  UNL1       -0.2743
     19 C          19.6852   71.1653   -7.7163 C.ar    1  UNL1        0.3323
     20 C          19.5153   71.5550   -5.3229 C.ar    1  UNL1        0.0869
     21 C          18.4007   70.8316   -5.1949 C.ar    1  UNL1        0.0795
     22 C          17.8164   70.1880   -6.3882 C.ar    1  UNL1        0.2626
     23 H          18.1396   69.9808   -8.4064 H       1  UNL1        0.1734
     24 O          23.6766   71.3955   -0.5527 O.3     1  UNL1       -0.2703
     25 P          23.0837   70.9486    0.8830 P.3     1  UNL1        0.2208
     26 O          24.2702   70.0454    1.5097 O.3     1  UNL1       -0.4371
     27 O          21.7514   70.2589    0.8116 O.2     1  UNL1       -0.5170
     28 O          23.0887   72.2993    1.7659 O.3     1  UNL1       -0.2858
     29 O          24.1761   72.8861    3.7840 O.3     1  UNL1       -0.3226
     30 O          20.5221   74.8307    4.1660 O.3     1  UNL1       -0.3794
     31 O          20.6572   72.1342    3.0632 O.3     1  UNL1       -0.3775
     32 O          22.9220   74.7854    5.5329 O.3     1  UNL1       -0.3792
     33 C          21.6746   74.2927    3.5238 C.3     1  UNL1        0.1718
     34 C          21.7407   72.7753    3.7279 C.3     1  UNL1        0.1968
     35 C          22.9236   74.9552    4.1116 C.3     1  UNL1        0.1723
     36 C          23.0619   72.2119    3.1899 C.3     1  UNL1        0.2706
     37 C          24.1742   74.2917    3.5389 C.3     1  UNL1        0.1830
     38 H          20.5225   75.7910    4.0131 H       1  UNL1        0.2105
     39 H          20.7463   71.1778    3.2122 H       1  UNL1        0.2106
     40 H          23.1436   73.8603    5.7337 H       1  UNL1        0.2106
     41 O          26.2924   75.2564    3.2450 O.co2   1  UNL1       -0.5466
     42 O          25.6213   74.8577    5.3870 O.co2   1  UNL1       -0.5466
     43 C          25.4170   74.8194    4.1823 C.2     1  UNL1        0.0799
@<TRIPOS>UNITY_ATOM_ATTR
41 1
charge -1
@<TRIPOS>BOND
     1     1     4    1
     2     1    24    1
     3     1     2    1
     4     1     3    2
     5    25    28    1
     6    25    24    1
     7    25    26    1
     8    25    27    2
     9     6    11    1
    10     6    12    1
    11    29    36    1
    12    29    37    1
    13     7     9    1
    14     7    13    1
    15     8    10    1
    16     8    14    1
    17     4     5    1
    18    28    36    1
    19    30    33    1
    20    30    38    1
    21    31    34    1
    22    31    39    1
    23    32    35    1
    24    32    40    1
    25    41    43   ar
    26    15    19    2
    27    42    43   ar
    28    16    22    2
    29    17    12    1
    30    17    19   ar
    31    17    20   ar
    32    18    19   ar
    33    18    22   ar
    34    18    23    1
    35     9    10    1
    36     9    11    1
    37    10    12    1
    38    11     5    1
    39    33    34    1
    40    33    35    1
    41    34    36    1
    42    35    37    1
    43    37    43    1
    44    20    21   ar
    45    21    22   ar
@<TRIPOS>MOLECULE
UDP-glaA
 43 45 0 0 0
SMALL
GASTEIGER

@<TRIPOS>ATOM
      1 P          20.6816   71.1711   -1.6338 P.3     1  UNL1        0.2189
      2 O          20.0224   72.6366   -1.8218 O.3     1  UNL1       -0.4371
      3 O          22.0196   70.9902   -2.2889 O.2     1  UNL1       -0.5170
      4 O          19.5192   70.1560   -2.1174 O.3     1  UNL1       -0.3112
      5 C          19.1577   70.1435   -3.4879 C.3     1  UNL1        0.1811
      6 O          17.5345   71.2746   -4.8517 O.3     1  UNL1       -0.3308
      7 O          15.4571   69.7682   -3.3004 O.3     1  UNL1       -0.3794
      8 O          15.6148   68.3458   -5.6216 O.3     1  UNL1       -0.3779
      9 C          16.7541   69.3449   -3.7204 C.3     1  UNL1        0.1713
     10 C          16.7587   69.0643   -5.2083 C.3     1  UNL1        0.1895
     11 C          17.6938   70.5392   -3.6185 C.3     1  UNL1        0.1764
     12 C          16.8115   70.4652   -5.7937 C.3     1  UNL1        0.2383
     13 H          15.5124   69.9734   -2.3515 H       1  UNL1        0.2105
     14 H          15.5970   67.5114   -5.1220 H       1  UNL1        0.2106
     15 O          15.5067   70.5802   -8.2957 O.2     1  UNL1       -0.2464
     16 O          19.5059   70.6132  -10.5855 O.2     1  UNL1       -0.2670
     17 N          17.4869   70.5053   -7.0593 N.ar    1  UNL1       -0.2551
     18 N          17.4990   70.5960   -9.4343 N.ar    1  UNL1       -0.2743
     19 C          16.7383   70.5612   -8.2582 C.ar    1  UNL1        0.3323
     20 C          18.8765   70.4891   -7.1042 C.ar    1  UNL1        0.0869
     21 C          19.5872   70.5232   -8.2336 C.ar    1  UNL1        0.0795
     22 C          18.8819   70.5813   -9.5293 C.ar    1  UNL1        0.2626
     23 H          16.9819   70.6357  -10.3084 H       1  UNL1        0.1734
     24 O          20.6864   70.9793   -0.0281 O.3     1  UNL1       -0.2703
     25 P          21.7137   71.5120    1.1003 P.3     1  UNL1        0.2208
     26 O          22.9151   70.4302    1.0487 O.3     1  UNL1       -0.4371
     27 O          21.0982   71.6907    2.4586 O.2     1  UNL1       -0.5170
     28 O          22.3480   72.8569    0.4736 O.3     1  UNL1       -0.2858
     29 O          24.1685   74.1110    1.3178 O.3     1  UNL1       -0.3226
     30 O          24.9823   70.3044    2.7761 O.3     1  UNL1       -0.3794
     31 O          23.9794   70.6680    0.0618 O.3     1  UNL1       -0.3775
     32 O          25.9994   72.8478    3.1319 O.3     1  UNL1       -0.3792
     33 C          24.2065   71.4248    2.3601 C.3     1  UNL1        0.1718
     34 C          24.4594   71.7298    0.8797 C.3     1  UNL1        0.1968
     35 C          24.5863   72.6357    3.2167 C.3     1  UNL1        0.1723
     36 C          23.7640   73.0331    0.4672 C.3     1  UNL1        0.2706
     37 C          23.8705   73.8791    2.6937 C.3     1  UNL1        0.1830
     38 H          24.7929   70.1496    3.7173 H       1  UNL1        0.2105
     39 H          24.1523   70.9095   -0.8638 H       1  UNL1        0.2106
     40 H          26.2037   73.2219    2.2581 H       1  UNL1        0.2106
     41 O          24.4915   76.1372    2.5541 O.co2   1  UNL1       -0.5466
     42 O          24.4847   75.1886    4.6270 O.co2   1  UNL1       -0.5466
     43 C          24.3115   75.1103    3.4194 C.2     1  UNL1        0.0799
@<TRIPOS>UNITY_ATOM_ATTR
41 1
charge -1
@<TRIPOS>BOND
     1     1     4    1
     2     1    24    1
     3     1     2    1
     4     1     3    2
     5    25    28    1
     6    25    24    1
     7    25    26    1
     8    25    27    2
     9     6    11    1
    10     6    12    1
    11    29    36    1
    12    29    37    1
    13     7     9    1
    14     7    13    1
    15     8    10    1
    16     8    14    1
    17     4     5    1
    18    28    36    1
    19    30    33    1
    20    30    38    1
    21    31    34    1
    22    31    39    1
    23    32    35    1
    24    32    40    1
    25    41    43   ar
    26    15    19    2
    27    42    43   ar
    28    16    22    2
    29    17    12    1
    30    17    19   ar
    31    17    20   ar
    32    18    19   ar
    33    18    22   ar
    34    18    23    1
    35     9    10    1
    36     9    11    1
    37    10    12    1
    38    11     5    1
    39    33    34    1
    40    33    35    1
    41    34    36    1
    42    35    37    1
    43    37    43    1
    44    20    21   ar
    45    21    22   ar
@<TRIPOS>MOLECULE
UDP-glaA
 43 45 0 0 0
SMALL
GASTEIGER

@<TRIPOS>ATOM
      1 P          20.0717   71.1140   -1.3578 P.3     1  UNL1        0.2189
      2 O          19.5752   72.6187   -1.0309 O.3     1  UNL1       -0.4371
      3 O          18.9863   70.1665   -1.7775 O.2     1  UNL1       -0.5170
      4 O          20.9090   70.6854   -0.0422 O.3     1  UNL1       -0.3112
      5 C          21.9452   71.5405    0.4096 C.3     1  UNL1        0.1811
      6 O          22.4808   71.9577    2.7147 O.3     1  UNL1       -0.3308
      7 O          20.5263   74.2267    2.5640 O.3     1  UNL1       -0.3794
      8 O          22.9298   75.4952    2.3404 O.3     1  UNL1       -0.3779
      9 C          21.4292   73.7448    1.5689 C.3     1  UNL1        0.1713
     10 C          22.8478   74.1540    1.9046 C.3     1  UNL1        0.1895
     11 C          21.4974   72.2282    1.6915 C.3     1  UNL1        0.1764
     12 C          23.2127   73.1621    2.9960 C.3     1  UNL1        0.2383
     13 H          19.6383   73.9080    2.3284 H       1  UNL1        0.2105
     14 H          22.5775   76.0564    1.6282 H       1  UNL1        0.2106
     15 O          25.1810   74.8173    4.1627 O.2     1  UNL1       -0.2464
     16 O          28.5674   71.9095    3.0157 O.2     1  UNL1       -0.2670
     17 N          24.6158   72.8619    3.0172 N.ar    1  UNL1       -0.2551
     18 N          26.8661   73.3685    3.5903 N.ar    1  UNL1       -0.2743
     19 C          25.5214   73.7605    3.6280 C.ar    1  UNL1        0.3323
     20 C          25.0823   71.6876    2.4367 C.ar    1  UNL1        0.0869
     21 C          26.3674   71.3278    2.4094 C.ar    1  UNL1        0.0795
     22 C          27.3779   72.2111    3.0245 C.ar    1  UNL1        0.2626
     23 H          27.5352   73.9996    4.0229 H       1  UNL1        0.1734
     24 O          21.2279   71.3463   -2.4643 O.3     1  UNL1       -0.2703
     25 P          21.3329   72.4038   -3.6822 P.3     1  UNL1        0.2208
     26 O          22.5384   71.8128   -4.5840 O.3     1  UNL1       -0.4371
     27 O          21.5255   73.8282   -3.2463 O.2     1  UNL1       -0.5170
     28 O          20.0032   72.1495   -4.5604 O.3     1  UNL1       -0.2858
     29 O          19.1964   70.0123   -5.1775 O.3     1  UNL1       -0.3226
     30 O          17.5584   72.4456   -8.1230 O.3     1  UNL1       -0.3794
     31 O          20.2975   72.8614   -7.2116 O.3     1  UNL1       -0.3775
     32 O          17.3067   69.8120   -7.3288 O.3     1  UNL1       -0.3792
     33 C          18.0333   72.0622   -6.8354 C.3     1  UNL1        0.1718
     34 C          19.5230   71.7085   -6.8988 C.3     1  UNL1        0.1968
     35 C          17.2281   70.8537   -6.3502 C.3     1  UNL1        0.1723
     36 C          20.0018   71.1318   -5.5607 C.3     1  UNL1        0.2706
     37 C          17.8148   70.3397   -5.0372 C.3     1  UNL1        0.1830
     38 H          16.6134   72.6576   -8.0359 H       1  UNL1        0.2105
     39 H          21.2310   72.5913   -7.2313 H       1  UNL1        0.2106
     40 H          18.1942   69.4171   -7.2889 H       1  UNL1        0.2106
     41 O          17.9908   68.3126   -3.8695 O.co2   1  UNL1       -0.5466
     42 O          15.9816   68.7809   -4.8393 O.co2   1  UNL1       -0.5466
     43 C          17.1406   69.0810   -4.5922 C.2     1  UNL1        0.0799
@<TRIPOS>UNITY_ATOM_ATTR
41 1
charge -1
@<TRIPOS>BOND
     1     1     4    1
     2     1    24    1
     3     1     2    1
     4     1     3    2
     5    25    28    1
     6    25    24    1
     7    25    26    1
     8    25    27    2
     9     6    11    1
    10     6    12    1
    11    29    36    1
    12    29    37    1
    13     7     9    1
    14     7    13    1
    15     8    10    1
    16     8    14    1
    17     4     5    1
    18    28    36    1
    19    30    33    1
    20    30    38    1
    21    31    34    1
    22    31    39    1
    23    32    35    1
    24    32    40    1
    25    41    43   ar
    26    15    19    2
    27    42    43   ar
    28    16    22    2
    29    17    12    1
    30    17    19   ar
    31    17    20   ar
    32    18    19   ar
    33    18    22   ar
    34    18    23    1
    35     9    10    1
    36     9    11    1
    37    10    12    1
    38    11     5    1
    39    33    34    1
    40    33    35    1
    41    34    36    1
    42    35    37    1
    43    37    43    1
    44    20    21   ar
    45    21    22   ar
@<TRIPOS>MOLECULE
UDP-glaA
 43 45 0 0 0
SMALL
GASTEIGER

@<TRIPOS>ATOM
      1 P          21.8863   72.4617   -5.7357 P.3     1  UNL1        0.2189
      2 O          21.2270   73.8786   -5.3172 O.3     1  UNL1       -0.4371
      3 O          23.0906   72.5622   -6.6254 O.2     1  UNL1       -0.5170
      4 O          20.6433   71.6135   -6.3283 O.3     1  UNL1       -0.3112
      5 C          20.1259   71.9682   -7.5994 C.3     1  UNL1        0.1811
      6 O          18.9138   69.9389   -7.1669 O.3     1  UNL1       -0.3308
      7 O          18.1317   70.0098  -10.0608 O.3     1  UNL1       -0.3794
      8 O          15.9011   70.9662   -8.8175 O.3     1  UNL1       -0.3779
      9 C          18.3068   71.0914   -9.1458 C.3     1  UNL1        0.1713
     10 C          17.1458   71.1518   -8.1757 C.3     1  UNL1        0.1895
     11 C          19.4717   70.7458   -8.2275 C.3     1  UNL1        0.1764
     12 C          17.4800   70.0254   -7.2127 C.3     1  UNL1        0.2383
     13 H          18.9158   69.9864  -10.6354 H       1  UNL1        0.2105
     14 H          15.8127   71.6619   -9.4916 H       1  UNL1        0.2106
     15 O          16.2833   68.0663   -5.5679 O.2     1  UNL1       -0.2464
     16 O          15.6124   71.0833   -2.1495 O.2     1  UNL1       -0.2670
     17 N          16.9843   70.2711   -5.8885 N.ar    1  UNL1       -0.2551
     18 N          15.9495   69.5701   -3.8670 N.ar    1  UNL1       -0.2743
     19 C          16.3999   69.2183   -5.1463 C.ar    1  UNL1        0.3323
     20 C          17.0794   71.5444   -5.3380 C.ar    1  UNL1        0.0869
     21 C          16.6457   71.8637   -4.1166 C.ar    1  UNL1        0.0795
     22 C          16.0219   70.8222   -3.2765 C.ar    1  UNL1        0.2626
     23 H          15.5253   68.8292   -3.3154 H       1  UNL1        0.1734
     24 O          22.1609   71.7540   -4.3078 O.3     1  UNL1       -0.2703
     25 P          23.3823   71.9160   -3.2616 P.3     1  UNL1        0.2208
     26 O          24.0851   73.2979   -3.7229 O.3     1  UNL1       -0.4371
     27 O          24.3098   70.7358   -3.2100 O.2     1  UNL1       -0.5170
     28 O          22.6726   72.2681   -1.8558 O.3     1  UNL1       -0.2858
     29 O          23.2822   70.8505   -0.0619 O.3     1  UNL1       -0.3226
     30 O          20.1013   72.9828    1.5551 O.3     1  UNL1       -0.3794
     31 O          20.0007   72.0343   -1.2011 O.3     1  UNL1       -0.3775
     32 O          22.0015   71.2053    2.4822 O.3     1  UNL1       -0.3792
     33 C          21.2564   72.7274    0.7609 C.3     1  UNL1        0.1718
     34 C          20.9733   71.6120   -0.2511 C.3     1  UNL1        0.1968
     35 C          22.4099   72.3192    1.6814 C.3     1  UNL1        0.1723
     36 C          22.2556   71.2121   -0.9916 C.3     1  UNL1        0.2706
     37 C          23.6153   71.9042    0.8406 C.3     1  UNL1        0.1830
     38 H          20.3266   73.6918    2.1812 H       1  UNL1        0.2105
     39 H          19.8617   71.3015   -1.8243 H       1  UNL1        0.2106
     40 H          21.9802   70.4122    1.9204 H       1  UNL1        0.2106
     41 O          24.7164   70.0195    1.7002 O.co2   1  UNL1       -0.5466
     42 O          25.5277   72.0620    2.3059 O.co2   1  UNL1       -0.5466
     43 C          24.7223   71.3743    1.6953 C.2     1  UNL1        0.0799
@<TRIPOS>UNITY_ATOM_ATTR
41 1
charge -1
@<TRIPOS>BOND
     1     1     4    1
     2     1    24    1
     3     1     2    1
     4     1     3    2
     5    25    28    1
     6    25    24    1
     7    25    26    1
     8    25    27    2
     9     6    11    1
    10     6    12    1
    11    29    36    1
    12    29    37    1
    13     7     9    1
    14     7    13    1
    15     8    10    1
    16     8    14    1
    17     4     5    1
    18    28    36    1
    19    30    33    1
    20    30    38    1
    21    31    34    1
    22    31    39    1
    23    32    35    1
    24    32    40    1
    25    41    43   ar
    26    15    19    2
    27    42    43   ar
    28    16    22    2
    29    17    12    1
    30    17    19   ar
    31    17    20   ar
    32    18    19   ar
    33    18    22   ar
    34    18    23    1
    35     9    10    1
    36     9    11    1
    37    10    12    1
    38    11     5    1
    39    33    34    1
    40    33    35    1
    41    34    36    1
    42    35    37    1
    43    37    43    1
    44    20    21   ar
    45    21    22   ar
@<TRIPOS>MOLECULE
UDP-glaA
 43 45 0 0 0
SMALL
GASTEIGER

@<TRIPOS>ATOM
      1 P          22.9063   71.4817   -2.8033 P.3     1  UNL1        0.2189
      2 O          22.8875   73.0946   -2.6776 O.3     1  UNL1       -0.4371
      3 O          24.2741   70.8679   -2.8689 O.2     1  UNL1       -0.5170
      4 O          21.9382   71.1776   -4.0627 O.3     1  UNL1       -0.3112
      5 C          21.7112   72.2098   -5.0073 C.3     1  UNL1        0.1811
      6 O          20.4898   70.4187   -6.0439 O.3     1  UNL1       -0.3308
      7 O          20.5202   72.0890   -8.5340 O.3     1  UNL1       -0.3794
      8 O          18.0079   72.5139   -7.5626 O.3     1  UNL1       -0.3779
      9 C          20.4074   72.5005   -7.1717 C.3     1  UNL1        0.1713
     10 C          19.0255   72.1837   -6.6401 C.3     1  UNL1        0.1895
     11 C          21.2895   71.5872   -6.3307 C.3     1  UNL1        0.1764
     12 C          19.1202   70.6890   -6.3853 C.3     1  UNL1        0.2383
     13 H          21.4311   72.2756   -8.8186 H       1  UNL1        0.2105
     14 H          18.0844   73.4643   -7.7551 H       1  UNL1        0.2106
     15 O          16.3123   70.4401   -6.5567 O.2     1  UNL1       -0.2464
     16 O          15.9855   69.0451   -2.1766 O.2     1  UNL1       -0.2670
     17 N          18.2767   70.2624   -5.3056 N.ar    1  UNL1       -0.2551
     18 N          16.1514   69.7461   -4.3753 N.ar    1  UNL1       -0.2743
     19 C          16.8779   70.1718   -5.4952 C.ar    1  UNL1        0.3323
     20 C          18.8366   69.9391   -4.0746 C.ar    1  UNL1        0.0869
     21 C          18.1305   69.5343   -3.0167 C.ar    1  UNL1        0.0795
     22 C          16.6635   69.4139   -3.1307 C.ar    1  UNL1        0.2626
     23 H          15.1438   69.6742   -4.4883 H       1  UNL1        0.1734
     24 O          22.0160   71.0093   -1.5386 O.3     1  UNL1       -0.2703
     25 P          22.2882   71.1217    0.0507 P.3     1  UNL1        0.2208
     26 O          23.8978   71.2510    0.1433 O.3     1  UNL1       -0.4371
     27 O          21.7094   69.9938    0.8560 O.2     1  UNL1       -0.5170
     28 O          21.7371   72.5828    0.4576 O.3     1  UNL1       -0.2858
     29 O          20.9518   73.0532    2.6397 O.3     1  UNL1       -0.3226
     30 O          19.1945   76.0884    0.4085 O.3     1  UNL1       -0.3794
     31 O          19.3265   73.3684   -0.6355 O.3     1  UNL1       -0.3775
     32 O          19.4588   75.4636    3.0861 O.3     1  UNL1       -0.3792
     33 C          20.1757   75.1336    0.8031 C.3     1  UNL1        0.1718
     34 C          19.6049   73.7140    0.7173 C.3     1  UNL1        0.1968
     35 C          20.6123   75.4367    2.2390 C.3     1  UNL1        0.1723
     36 C          20.5918   72.6955    1.3013 C.3     1  UNL1        0.2706
     37 C          21.5571   74.3420    2.7301 C.3     1  UNL1        0.1830
     38 H          19.5977   76.9704    0.4805 H       1  UNL1        0.2105
     39 H          18.9774   72.4612   -0.6406 H       1  UNL1        0.2106
     40 H          19.1526   74.5507    3.2201 H       1  UNL1        0.2106
     41 O          20.8411   74.2548    4.9625 O.co2   1  UNL1       -0.5466
     42 O          23.0029   74.8747    4.5890 O.co2   1  UNL1       -0.5466
     43 C          21.9073   74.5278    4.1723 C.2     1  UNL1        0.0799
@<TRIPOS>UNITY_ATOM_ATTR
41 1
charge -1
@<TRIPOS>BOND
     1     1     4    1
     2     1    24    1
     3     1     2    1
     4     1     3    2
     5    25    28    1
     6    25    24    1
     7    25    26    1
     8    25    27    2
     9     6    11    1
    10     6    12    1
    11    29    36    1
    12    29    37    1
    13     7     9    1
    14     7    13    1
    15     8    10    1
    16     8    14    1
    17     4     5    1
    18    28    36    1
    19    30    33    1
    20    30    38    1
    21    31    34    1
    22    31    39    1
    23    32    35    1
    24    32    40    1
    25    41    43   ar
    26    15    19    2
    27    42    43   ar
    28    16    22    2
    29    17    12    1
    30    17    19   ar
    31    17    20   ar
    32    18    19   ar
    33    18    22   ar
    34    18    23    1
    35     9    10    1
    36     9    11    1
    37    10    12    1
    38    11     5    1
    39    33    34    1
    40    33    35    1
    41    34    36    1
    42    35    37    1
    43    37    43    1
    44    20    21   ar
    45    21    22   ar
@<TRIPOS>MOLECULE
UDP-glaA
 43 45 0 0 0
SMALL
GASTEIGER

@<TRIPOS>ATOM
      1 P          23.4893   72.3816   -3.4530 P.3     1  UNL1        0.2189
      2 O          24.0695   70.8843   -3.2561 O.3     1  UNL1       -0.4371
      3 O          24.5003   73.3992   -3.8940 O.2     1  UNL1       -0.5170
      4 O          22.7395   72.6959   -2.0549 O.3     1  UNL1       -0.3112
      5 C          23.5171   72.7781   -0.8727 C.3     1  UNL1        0.1811
      6 O          24.5285   71.2823    0.7128 O.3     1  UNL1       -0.3308
      7 O          21.7600   70.2488    1.2216 O.3     1  UNL1       -0.3794
      8 O          22.1751   71.9096    3.3442 O.3     1  UNL1       -0.3779
      9 C          22.1888   71.5800    0.9354 C.3     1  UNL1        0.1713
     10 C          22.8702   72.1838    2.1453 C.3     1  UNL1        0.1895
     11 C          23.3322   71.4998   -0.0674 C.3     1  UNL1        0.1764
     12 C          24.2379   71.5241    2.0993 C.3     1  UNL1        0.2383
     13 H          21.3659   69.8902    0.4082 H       1  UNL1        0.2105
     14 H          21.2762   72.2693    3.2501 H       1  UNL1        0.2106
     15 O          26.9220   70.7206    2.4535 O.2     1  UNL1       -0.2464
     16 O          28.0997   74.8022    4.2402 O.2     1  UNL1       -0.2670
     17 N          25.2669   72.3564    2.6540 N.ar    1  UNL1       -0.2551
     18 N          27.5066   72.7534    3.3435 N.ar    1  UNL1       -0.2743
     19 C          26.5832   71.8567    2.7899 C.ar    1  UNL1        0.3323
     20 C          24.9675   73.6530    3.0572 C.ar    1  UNL1        0.0869
     21 C          25.8591   74.4959    3.5828 C.ar    1  UNL1        0.0795
     22 C          27.2560   74.0518    3.7595 C.ar    1  UNL1        0.2626
     23 H          28.4591   72.4155    3.4511 H       1  UNL1        0.1734
     24 O          22.2615   72.1621   -4.4822 O.3     1  UNL1       -0.2703
     25 P          20.8458   71.4044   -4.2976 P.3     1  UNL1        0.2208
     26 O          20.0726   72.3217   -3.2127 O.3     1  UNL1       -0.4371
     27 O          20.9670   69.9577   -3.9123 O.2     1  UNL1       -0.5170
     28 O          20.0604   71.6616   -5.6836 O.3     1  UNL1       -0.2858
     29 O          18.2818   70.1220   -5.4278 O.3     1  UNL1       -0.3226
     30 O          17.0085   72.3933   -8.6680 O.3     1  UNL1       -0.3794
     31 O          19.8007   71.5849   -8.4312 O.3     1  UNL1       -0.3775
     32 O          15.9262   70.4456   -7.0357 O.3     1  UNL1       -0.3792
     33 C          17.6462   72.0953   -7.4291 C.3     1  UNL1        0.1718
     34 C          18.7492   71.0513   -7.6334 C.3     1  UNL1        0.1968
     35 C          16.5977   71.5645   -6.4476 C.3     1  UNL1        0.1723
     36 C          19.3242   70.5979   -6.2857 C.3     1  UNL1        0.2706
     37 C          17.2835   71.1061   -5.1624 C.3     1  UNL1        0.1830
     38 H          16.3179   73.0546   -8.4909 H       1  UNL1        0.2105
     39 H          20.4776   70.8937   -8.5249 H       1  UNL1        0.2106
     40 H          16.5294   69.6832   -7.0257 H       1  UNL1        0.2106
     41 O          16.3679   69.1111   -4.3346 O.co2   1  UNL1       -0.5466
     42 O          15.5724   71.0601   -3.4595 O.co2   1  UNL1       -0.5466
     43 C          16.3134   70.4604   -4.2249 C.2     1  UNL1        0.0799
@<TRIPOS>UNITY_ATOM_ATTR
41 1
charge -1
@<TRIPOS>BOND
     1     1     4    1
     2     1    24    1
     3     1     2    1
     4     1     3    2
     5    25    28    1
     6    25    24    1
     7    25    26    1
     8    25    27    2
     9     6    11    1
    10     6    12    1
    11    29    36    1
    12    29    37    1
    13     7     9    1
    14     7    13    1
    15     8    10    1
    16     8    14    1
    17     4     5    1
    18    28    36    1
    19    30    33    1
    20    30    38    1
    21    31    34    1
    22    31    39    1
    23    32    35    1
    24    32    40    1
    25    41    43   ar
    26    15    19    2
    27    42    43   ar
    28    16    22    2
    29    17    12    1
    30    17    19   ar
    31    17    20   ar
    32    18    19   ar
    33    18    22   ar
    34    18    23    1
    35     9    10    1
    36     9    11    1
    37    10    12    1
    38    11     5    1
    39    33    34    1
    40    33    35    1
    41    34    36    1
    42    35    37    1
    43    37    43    1
    44    20    21   ar
    45    21    22   ar
@<TRIPOS>MOLECULE
UDP-glaA
 43 45 0 0 0
SMALL
GASTEIGER

@<TRIPOS>ATOM
      1 P          23.1316   71.5439   -2.3226 P.3     1  UNL1        0.2189
      2 O          22.9435   71.0213   -0.8031 O.3     1  UNL1       -0.4371
      3 O          24.2381   70.8795   -3.0881 O.2     1  UNL1       -0.5170
      4 O          23.2476   73.1499   -2.1708 O.3     1  UNL1       -0.3112
      5 C          23.0794   73.7228   -0.8852 C.3     1  UNL1        0.1811
      6 O          21.0907   73.7170    0.4636 O.3     1  UNL1       -0.3308
      7 O          20.2789   76.1720   -1.0547 O.3     1  UNL1       -0.3794
      8 O          21.2124   77.2038    1.2904 O.3     1  UNL1       -0.3779
      9 C          21.5785   75.7604   -0.6314 C.3     1  UNL1        0.1713
     10 C          21.7333   75.9629    0.8611 C.3     1  UNL1        0.1895
     11 C          21.6553   74.2445   -0.7571 C.3     1  UNL1        0.1764
     12 C          20.9619   74.7803    1.4219 C.3     1  UNL1        0.2383
     13 H          20.2125   75.9878   -2.0072 H       1  UNL1        0.2105
     14 H          21.6842   77.9027    0.8056 H       1  UNL1        0.2106
     15 O          20.3345   72.3021    2.6221 O.2     1  UNL1       -0.2464
     16 O          23.0079   73.1849    6.2707 O.2     1  UNL1       -0.2670
     17 N          21.4800   74.3367    2.6844 N.ar    1  UNL1       -0.2551
     18 N          21.6657   72.7436    4.4384 N.ar    1  UNL1       -0.2743
     19 C          21.1015   73.0748    3.1994 C.ar    1  UNL1        0.3323
     20 C          22.3534   75.1489    3.3992 C.ar    1  UNL1        0.0869
     21 C          22.8832   74.8186    4.5790 C.ar    1  UNL1        0.0795
     22 C          22.5384   73.5181    5.1869 C.ar    1  UNL1        0.2626
     23 H          21.4072   71.8412    4.8282 H       1  UNL1        0.1734
     24 O          21.6583   71.3449   -2.9591 O.3     1  UNL1       -0.2703
     25 P          20.9042   72.1311   -4.1532 P.3     1  UNL1        0.2208
     26 O          21.9371   72.0042   -5.3914 O.3     1  UNL1       -0.4371
     27 O          20.5147   73.5411   -3.8127 O.2     1  UNL1       -0.5170
     28 O          19.6668   71.1760   -4.5540 O.3     1  UNL1       -0.2858
     29 O          18.3964   71.6919   -6.4826 O.3     1  UNL1       -0.3226
     30 O          15.9002   69.0396   -4.4791 O.3     1  UNL1       -0.3794
     31 O          17.3800   71.0788   -3.0101 O.3     1  UNL1       -0.3775
     32 O          15.9504   70.2658   -6.9538 O.3     1  UNL1       -0.3792
     33 C          17.1164   69.6231   -4.9383 C.3     1  UNL1        0.1718
     34 C          17.2452   71.0620   -4.4273 C.3     1  UNL1        0.1968
     35 C          17.1258   69.6080   -6.4693 C.3     1  UNL1        0.1723
     36 C          18.4619   71.7542   -5.0541 C.3     1  UNL1        0.2706
     37 C          18.3543   70.3561   -6.9823 C.3     1  UNL1        0.1830
     38 H          15.8600   68.1328   -4.8277 H       1  UNL1        0.2105
     39 H          17.4676   72.0069   -2.7347 H       1  UNL1        0.2106
     40 H          16.0549   71.2231   -6.8201 H       1  UNL1        0.2106
     41 O          19.4468   71.1202   -8.9128 O.co2   1  UNL1       -0.5466
     42 O          17.4503   70.0582   -9.2013 O.co2   1  UNL1       -0.5466
     43 C          18.3374   70.4788   -8.4729 C.2     1  UNL1        0.0799
@<TRIPOS>UNITY_ATOM_ATTR
41 1
charge -1
@<TRIPOS>BOND
     1     1     4    1
     2     1    24    1
     3     1     2    1
     4     1     3    2
     5    25    28    1
     6    25    24    1
     7    25    26    1
     8    25    27    2
     9     6    11    1
    10     6    12    1
    11    29    36    1
    12    29    37    1
    13     7     9    1
    14     7    13    1
    15     8    10    1
    16     8    14    1
    17     4     5    1
    18    28    36    1
    19    30    33    1
    20    30    38    1
    21    31    34    1
    22    31    39    1
    23    32    35    1
    24    32    40    1
    25    41    43   ar
    26    15    19    2
    27    42    43   ar
    28    16    22    2
    29    17    12    1
    30    17    19   ar
    31    17    20   ar
    32    18    19   ar
    33    18    22   ar
    34    18    23    1
    35     9    10    1
    36     9    11    1
    37    10    12    1
    38    11     5    1
    39    33    34    1
    40    33    35    1
    41    34    36    1
    42    35    37    1
    43    37    43    1
    44    20    21   ar
    45    21    22   ar
@<TRIPOS>MOLECULE
UDP-glaA
 43 45 0 0 0
SMALL
GASTEIGER

@<TRIPOS>ATOM
      1 P          23.0494   71.5275   -2.8606 P.3     1  UNL1        0.2189
      2 O          21.9661   70.7486   -1.9456 O.3     1  UNL1       -0.4371
      3 O          24.3296   70.7815   -3.0989 O.2     1  UNL1       -0.5170
      4 O          23.1992   72.9698   -2.1446 O.3     1  UNL1       -0.3112
      5 C          23.3170   73.0164   -0.7328 C.3     1  UNL1        0.1811
      6 O          24.4651   71.2068    0.3542 O.3     1  UNL1       -0.3308
      7 O          21.7477   70.1562    1.0636 O.3     1  UNL1       -0.3794
      8 O          22.5522   71.3415    3.3838 O.3     1  UNL1       -0.3779
      9 C          22.2011   71.5074    0.9838 C.3     1  UNL1        0.1713
     10 C          23.0810   71.8370    2.1712 C.3     1  UNL1        0.1895
     11 C          23.1822   71.6059   -0.1769 C.3     1  UNL1        0.1764
     12 C          24.3907   71.1688    1.7888 C.3     1  UNL1        0.2383
     13 H          21.2219   69.9793    0.2649 H       1  UNL1        0.2105
     14 H          21.6697   71.7335    3.5002 H       1  UNL1        0.2106
     15 O          24.4085   73.8804    2.5778 O.2     1  UNL1       -0.2464
     16 O          28.8282   73.6663    3.8657 O.2     1  UNL1       -0.2670
     17 N          25.5318   71.8471    2.3340 N.ar    1  UNL1       -0.2551
     18 N          26.6095   73.7721    3.2181 N.ar    1  UNL1       -0.2743
     19 C          25.4360   73.2107    2.6977 C.ar    1  UNL1        0.3323
     20 C          26.7298   71.1620    2.5033 C.ar    1  UNL1        0.0869
     21 C          27.8398   71.7113    3.0013 C.ar    1  UNL1        0.0795
     22 C          27.8245   73.1313    3.4049 C.ar    1  UNL1        0.2626
     23 H          26.5641   74.7516    3.4859 H       1  UNL1        0.1734
     24 O          22.2114   71.8722   -4.2000 O.3     1  UNL1       -0.2703
     25 P          20.6211   72.0242   -4.4460 P.3     1  UNL1        0.2208
     26 O          20.3924   73.6251   -4.4160 O.3     1  UNL1       -0.4371
     27 O          19.7713   71.2582   -3.4729 O.2     1  UNL1       -0.5170
     28 O          20.4047   71.6095   -5.9903 O.3     1  UNL1       -0.2858
     29 O          18.1575   70.8798   -6.1204 O.3     1  UNL1       -0.3226
     30 O          19.3792   70.6486  -10.0869 O.3     1  UNL1       -0.3794
     31 O          21.1587   69.8024   -7.9368 O.3     1  UNL1       -0.3775
     32 O          16.9996   70.4106   -8.7045 O.3     1  UNL1       -0.3792
     33 C          19.3015   71.1413   -8.7521 C.3     1  UNL1        0.1718
     34 C          19.7722   70.0726   -7.7598 C.3     1  UNL1        0.1968
     35 C          17.8519   71.5326   -8.4522 C.3     1  UNL1        0.1723
     36 C          19.5314   70.5289   -6.3154 C.3     1  UNL1        0.2706
     37 C          17.7207   71.9288   -6.9832 C.3     1  UNL1        0.1830
     38 H          19.0702   71.3555  -10.6789 H       1  UNL1        0.2105
     39 H          21.4123   69.1294   -7.2828 H       1  UNL1        0.2106
     40 H          17.1228   69.7624   -7.9905 H       1  UNL1        0.2106
     41 O          16.0992   71.9880   -5.2888 O.co2   1  UNL1       -0.5466
     42 O          15.4242   72.5523   -7.3919 O.co2   1  UNL1       -0.5466
     43 C          16.2961   72.1945   -6.6133 C.2     1  UNL1        0.0799
@<TRIPOS>UNITY_ATOM_ATTR
41 1
charge -1
@<TRIPOS>BOND
     1     1     4    1
     2     1    24    1
     3     1     2    1
     4     1     3    2
     5    25    28    1
     6    25    24    1
     7    25    26    1
     8    25    27    2
     9     6    11    1
    10     6    12    1
    11    29    36    1
    12    29    37    1
    13     7     9    1
    14     7    13    1
    15     8    10    1
    16     8    14    1
    17     4     5    1
    18    28    36    1
    19    30    33    1
    20    30    38    1
    21    31    34    1
    22    31    39    1
    23    32    35    1
    24    32    40    1
    25    41    43   ar
    26    15    19    2
    27    42    43   ar
    28    16    22    2
    29    17    12    1
    30    17    19   ar
    31    17    20   ar
    32    18    19   ar
    33    18    22   ar
    34    18    23    1
    35     9    10    1
    36     9    11    1
    37    10    12    1
    38    11     5    1
    39    33    34    1
    40    33    35    1
    41    34    36    1
    42    35    37    1
    43    37    43    1
    44    20    21   ar
    45    21    22   ar
@<TRIPOS>MOLECULE
UDP-glaA
 43 45 0 0 0
SMALL
GASTEIGER

@<TRIPOS>ATOM
      1 P          23.4680   72.2353   -3.6809 P.3     1  UNL1        0.2189
      2 O          24.0654   70.8554   -3.0840 O.3     1  UNL1       -0.4371
      3 O          24.4924   73.1795   -4.2388 O.2     1  UNL1       -0.5170
      4 O          22.5562   72.8175   -2.4788 O.3     1  UNL1       -0.3112
      5 C          23.0907   72.8256   -1.1660 C.3     1  UNL1        0.1811
      6 O          22.6086   72.1517    1.0896 O.3     1  UNL1       -0.3308
      7 O          19.7923   73.0293    0.5515 O.3     1  UNL1       -0.3794
      8 O          20.8078   75.1243    1.9711 O.3     1  UNL1       -0.3779
      9 C          21.0187   73.5968    0.0915 C.3     1  UNL1        0.1713
     10 C          21.7080   74.3398    1.2163 C.3     1  UNL1        0.1895
     11 C          21.9911   72.4566   -0.1804 C.3     1  UNL1        0.1764
     12 C          22.3101   73.2024    2.0236 C.3     1  UNL1        0.2383
     13 H          19.4069   72.5320   -0.1900 H       1  UNL1        0.2105
     14 H          20.3858   75.7537    1.3614 H       1  UNL1        0.2106
     15 O          22.5003   73.7151    4.7943 O.2     1  UNL1       -0.2464
     16 O          26.9981   74.6732    4.4939 O.2     1  UNL1       -0.2670
     17 N          23.5182   73.5869    2.6960 N.ar    1  UNL1       -0.2551
     18 N          24.7398   74.1924    4.6428 N.ar    1  UNL1       -0.2743
     19 C          23.5064   73.8219    4.0908 C.ar    1  UNL1        0.3323
     20 C          24.6983   73.7278    1.9743 C.ar    1  UNL1        0.0869
     21 C          25.8663   74.0813    2.5153 C.ar    1  UNL1        0.0795
     22 C          25.9398   74.3458    3.9659 C.ar    1  UNL1        0.2626
     23 H          24.7549   74.3670    5.6440 H       1  UNL1        0.1734
     24 O          22.3712   71.7216   -4.7526 O.3     1  UNL1       -0.2703
     25 P          21.3322   72.5402   -5.6815 P.3     1  UNL1        0.2208
     26 O          21.5545   71.8923   -7.1468 O.3     1  UNL1       -0.4371
     27 O          21.5033   74.0315   -5.6306 O.2     1  UNL1       -0.5170
     28 O          19.8754   72.0202   -5.2218 O.3     1  UNL1       -0.2858
     29 O          19.0197   69.8525   -4.8115 O.3     1  UNL1       -0.3226
     30 O          15.7409   71.7802   -6.4885 O.3     1  UNL1       -0.3794
     31 O          18.4193   72.2091   -7.5599 O.3     1  UNL1       -0.3775
     32 O          16.2270   69.3582   -5.2527 O.3     1  UNL1       -0.3792
     33 C          16.9351   71.6181   -5.7284 C.3     1  UNL1        0.1718
     34 C          18.0899   71.1784   -6.6347 C.3     1  UNL1        0.1968
     35 C          16.6919   70.5665   -4.6424 C.3     1  UNL1        0.1723
     36 C          19.3326   70.8358   -5.8036 C.3     1  UNL1        0.2706
     37 C          17.9991   70.2749   -3.9085 C.3     1  UNL1        0.1830
     38 H          15.0381   72.0558   -5.8755 H       1  UNL1        0.2105
     39 H          19.1589   71.8897   -8.1039 H       1  UNL1        0.2106
     40 H          16.9763   68.9300   -5.7002 H       1  UNL1        0.2106
     41 O          18.0638   67.9625   -3.5181 O.co2   1  UNL1       -0.5466
     42 O          17.5450   69.3004   -1.7466 O.co2   1  UNL1       -0.5466
     43 C          17.8375   69.1596   -2.9252 C.2     1  UNL1        0.0799
@<TRIPOS>UNITY_ATOM_ATTR
41 1
charge -1
@<TRIPOS>BOND
     1     1     4    1
     2     1    24    1
     3     1     2    1
     4     1     3    2
     5    25    28    1
     6    25    24    1
     7    25    26    1
     8    25    27    2
     9     6    11    1
    10     6    12    1
    11    29    36    1
    12    29    37    1
    13     7     9    1
    14     7    13    1
    15     8    10    1
    16     8    14    1
    17     4     5    1
    18    28    36    1
    19    30    33    1
    20    30    38    1
    21    31    34    1
    22    31    39    1
    23    32    35    1
    24    32    40    1
    25    41    43   ar
    26    15    19    2
    27    42    43   ar
    28    16    22    2
    29    17    12    1
    30    17    19   ar
    31    17    20   ar
    32    18    19   ar
    33    18    22   ar
    34    18    23    1
    35     9    10    1
    36     9    11    1
    37    10    12    1
    38    11     5    1
    39    33    34    1
    40    33    35    1
    41    34    36    1
    42    35    37    1
    43    37    43    1
    44    20    21   ar
    45    21    22   ar
@<TRIPOS>MOLECULE
UDP-glaA
 43 45 0 0 0
SMALL
GASTEIGER

@<TRIPOS>ATOM
      1 P          22.8552   71.5470   -2.7751 P.3     1  UNL1        0.2189
      2 O          21.9596   70.7939   -1.6580 O.3     1  UNL1       -0.4371
      3 O          24.1665   70.8865   -3.0858 O.2     1  UNL1       -0.5170
      4 O          22.9450   73.0707   -2.2403 O.3     1  UNL1       -0.3112
      5 C          22.7205   73.3195   -0.8630 C.3     1  UNL1        0.1811
      6 O          20.8231   73.7560    0.5453 O.3     1  UNL1       -0.3308
      7 O          20.4805   76.2907   -1.0196 O.3     1  UNL1       -0.3794
      8 O          21.6901   77.1600    1.2644 O.3     1  UNL1       -0.3779
      9 C          21.6818   75.6289   -0.6241 C.3     1  UNL1        0.1713
     10 C          21.9284   75.8287    0.8564 C.3     1  UNL1        0.1895
     11 C          21.4400   74.1274   -0.7071 C.3     1  UNL1        0.1764
     12 C          20.9506   74.8444    1.4751 C.3     1  UNL1        0.2383
     13 H          20.3434   76.1027   -1.9638 H       1  UNL1        0.2105
     14 H          22.2781   77.7350    0.7450 H       1  UNL1        0.2106
     15 O          20.5554   72.1913    2.3586 O.2     1  UNL1       -0.2464
     16 O          22.7606   72.9899    6.3257 O.2     1  UNL1       -0.2670
     17 N          21.4112   74.3319    2.7339 N.ar    1  UNL1       -0.2551
     18 N          21.6533   72.5909    4.3337 N.ar    1  UNL1       -0.2743
     19 C          21.1600   72.9843    3.0826 C.ar    1  UNL1        0.3323
     20 C          22.1036   75.1618    3.6086 C.ar    1  UNL1        0.0869
     21 C          22.5679   74.7716    4.7977 C.ar    1  UNL1        0.0795
     22 C          22.3470   73.3799    5.2380 C.ar    1  UNL1        0.2626
     23 H          21.4838   71.6263    4.6056 H       1  UNL1        0.1734
     24 O          21.8446   71.6624   -4.0323 O.3     1  UNL1       -0.2703
     25 P          21.6954   72.7989   -5.1719 P.3     1  UNL1        0.2208
     26 O          23.2032   72.9606   -5.7344 O.3     1  UNL1       -0.4371
     27 O          21.0735   74.0778   -4.6887 O.2     1  UNL1       -0.5170
     28 O          20.8887   72.0756   -6.3677 O.3     1  UNL1       -0.2858
     29 O          18.7842   71.3747   -5.5436 O.3     1  UNL1       -0.3226
     30 O          18.6825   70.0068   -9.4676 O.3     1  UNL1       -0.3794
     31 O          21.1193   69.7782   -7.8815 O.3     1  UNL1       -0.3775
     32 O          16.8994   70.2091   -7.3678 O.3     1  UNL1       -0.3792
     33 C          18.9984   70.8595   -8.3706 C.3     1  UNL1        0.1718
     34 C          19.8460   70.1095   -7.3375 C.3     1  UNL1        0.1968
     35 C          17.6955   71.3428   -7.7278 C.3     1  UNL1        0.1723
     36 C          20.0461   70.9611   -6.0777 C.3     1  UNL1        0.2706
     37 C          18.0116   72.1421   -6.4655 C.3     1  UNL1        0.1830
     38 H          18.1447   70.5211  -10.0936 H       1  UNL1        0.2105
     39 H          21.6220   69.3148   -7.1906 H       1  UNL1        0.2106
     40 H          17.2963   69.7886   -6.5862 H       1  UNL1        0.2106
     41 O          16.2876   71.4757   -5.0207 O.co2   1  UNL1       -0.5466
     42 O          16.2434   73.6298   -5.7656 O.co2   1  UNL1       -0.5466
     43 C          16.7648   72.5245   -5.7334 C.2     1  UNL1        0.0799
@<TRIPOS>UNITY_ATOM_ATTR
41 1
charge -1
@<TRIPOS>BOND
     1     1     4    1
     2     1    24    1
     3     1     2    1
     4     1     3    2
     5    25    28    1
     6    25    24    1
     7    25    26    1
     8    25    27    2
     9     6    11    1
    10     6    12    1
    11    29    36    1
    12    29    37    1
    13     7     9    1
    14     7    13    1
    15     8    10    1
    16     8    14    1
    17     4     5    1
    18    28    36    1
    19    30    33    1
    20    30    38    1
    21    31    34    1
    22    31    39    1
    23    32    35    1
    24    32    40    1
    25    41    43   ar
    26    15    19    2
    27    42    43   ar
    28    16    22    2
    29    17    12    1
    30    17    19   ar
    31    17    20   ar
    32    18    19   ar
    33    18    22   ar
    34    18    23    1
    35     9    10    1
    36     9    11    1
    37    10    12    1
    38    11     5    1
    39    33    34    1
    40    33    35    1
    41    34    36    1
    42    35    37    1
    43    37    43    1
    44    20    21   ar
    45    21    22   ar
@<TRIPOS>MOLECULE
UDP-glaA
 43 45 0 0 0
SMALL
GASTEIGER

@<TRIPOS>ATOM
      1 P          22.5292   71.0570    0.4617 P.3     1  UNL1        0.2189
      2 O          24.0933   70.8511    0.8201 O.3     1  UNL1       -0.4371
      3 O          21.5817   70.1973    1.2461 O.2     1  UNL1       -0.5170
      4 O          22.4711   70.8820   -1.1450 O.3     1  UNL1       -0.3112
      5 C          22.4303   72.0465   -1.9522 C.3     1  UNL1        0.1811
      6 O          21.8409   70.5504   -3.7378 O.3     1  UNL1       -0.3308
      7 O          23.1372   72.5331   -5.5763 O.3     1  UNL1       -0.3794
      8 O          20.4837   73.0794   -5.8867 O.3     1  UNL1       -0.3779
      9 C          22.3748   72.7640   -4.3917 C.3     1  UNL1        0.1713
     10 C          20.9040   72.5225   -4.6584 C.3     1  UNL1        0.1895
     11 C          22.7043   71.6578   -3.3980 C.3     1  UNL1        0.1764
     12 C          20.8261   71.0054   -4.6480 C.3     1  UNL1        0.2383
     13 H          24.0736   72.6613   -5.3478 H       1  UNL1        0.2105
     14 H          20.6671   74.0341   -5.8532 H       1  UNL1        0.2106
     15 O          18.6199   70.5276   -6.3450 O.2     1  UNL1       -0.2464
     16 O          15.9751   69.1642   -2.8259 O.2     1  UNL1       -0.2670
     17 N          19.5494   70.5250   -4.2023 N.ar    1  UNL1       -0.2551
     18 N          17.3042   69.8495   -4.5914 N.ar    1  UNL1       -0.2743
     19 C          18.5069   70.3190   -5.1358 C.ar    1  UNL1        0.3323
     20 C          19.3400   70.2632   -2.8528 C.ar    1  UNL1        0.0869
     21 C          18.1876   69.8154   -2.3495 C.ar    1  UNL1        0.0795
     22 C          17.0481   69.5751   -3.2569 C.ar    1  UNL1        0.2626
     23 H          16.5404   69.6947   -5.2440 H       1  UNL1        0.1734
     24 O          22.3180   72.6478    0.6616 O.3     1  UNL1       -0.2703
     25 P          21.4384   73.4737    1.7372 P.3     1  UNL1        0.2208
     26 O          20.3263   72.3989    2.2107 O.3     1  UNL1       -0.4371
     27 O          20.8718   74.7612    1.2108 O.2     1  UNL1       -0.5170
     28 O          22.4099   73.6456    3.0142 O.3     1  UNL1       -0.2858
     29 O          21.1905   75.2164    4.2967 O.3     1  UNL1       -0.3226
     30 O          24.1396   74.0130    6.9676 O.3     1  UNL1       -0.3794
     31 O          24.7816   74.4730    4.1601 O.3     1  UNL1       -0.3775
     32 O          21.8445   75.5466    7.0719 O.3     1  UNL1       -0.3792
     33 C          23.1906   73.9120    5.9095 C.3     1  UNL1        0.1718
     34 C          23.5572   74.8683    4.7697 C.3     1  UNL1        0.1968
     35 C          21.8019   74.2555    6.4554 C.3     1  UNL1        0.1723
     36 C          22.4533   74.8933    3.7052 C.3     1  UNL1        0.2706
     37 C          20.7942   74.2918    5.3084 C.3     1  UNL1        0.1830
     38 H          23.8671   73.3939    7.6662 H       1  UNL1        0.2105
     39 H          24.9671   75.1000    3.4409 H       1  UNL1        0.2106
     40 H          21.8938   76.2210    6.3734 H       1  UNL1        0.2106
     41 O          19.1934   74.2881    7.0234 O.co2   1  UNL1       -0.5466
     42 O          18.6825   75.4484    5.1287 O.co2   1  UNL1       -0.5466
     43 C          19.4495   74.7502    5.7758 C.2     1  UNL1        0.0799
@<TRIPOS>UNITY_ATOM_ATTR
41 1
charge -1
@<TRIPOS>BOND
     1     1     4    1
     2     1    24    1
     3     1     2    1
     4     1     3    2
     5    25    28    1
     6    25    24    1
     7    25    26    1
     8    25    27    2
     9     6    11    1
    10     6    12    1
    11    29    36    1
    12    29    37    1
    13     7     9    1
    14     7    13    1
    15     8    10    1
    16     8    14    1
    17     4     5    1
    18    28    36    1
    19    30    33    1
    20    30    38    1
    21    31    34    1
    22    31    39    1
    23    32    35    1
    24    32    40    1
    25    41    43   ar
    26    15    19    2
    27    42    43   ar
    28    16    22    2
    29    17    12    1
    30    17    19   ar
    31    17    20   ar
    32    18    19   ar
    33    18    22   ar
    34    18    23    1
    35     9    10    1
    36     9    11    1
    37    10    12    1
    38    11     5    1
    39    33    34    1
    40    33    35    1
    41    34    36    1
    42    35    37    1
    43    37    43    1
    44    20    21   ar
    45    21    22   ar
