@<TRIPOS>MOLECULE
UD1
 46 48 0 0 0
SMALL
GASTEIGER

@<TRIPOS>ATOM
      1 P          21.7129   70.8474   -2.5340 P.3     1  UNL1        0.2189
      2 O          23.1811   70.9864   -2.6518 O.2     1  UNL1       -0.5170
      3 O          21.2993   69.3084   -2.7644 O.3     1  UNL1       -0.4371
      4 O          20.9965   71.7667   -3.6450 O.3     1  UNL1       -0.3112
      5 C          19.9511   72.4789   -2.9815 C.3     1  UNL1        0.1811
      6 C          17.9157   71.3541   -5.7236 C.3     1  UNL1        0.2383
      7 C          18.0133   70.1265   -4.7836 C.3     1  UNL1        0.1895
      8 O          16.8351   69.3238   -4.8671 O.3     1  UNL1       -0.3779
      9 C          18.1308   70.7933   -3.3883 C.3     1  UNL1        0.1713
     10 C          18.6236   72.2206   -3.6958 C.3     1  UNL1        0.1764
     11 O          18.8077   72.3143   -5.1187 O.3     1  UNL1       -0.3308
     12 O          16.8573   70.8256   -2.7404 O.3     1  UNL1       -0.3794
     13 H          16.9594   68.5800   -4.2615 H       1  UNL1        0.2106
     14 H          16.5767   69.9073   -2.6301 H       1  UNL1        0.2105
     15 N          18.3647   71.0115   -7.0736 N.ar    1  UNL1       -0.2551
     16 C          17.4638   70.6502   -8.0038 C.ar    1  UNL1        0.3323
     17 N          17.8479   70.3337   -9.2546 N.ar    1  UNL1       -0.2743
     18 C          19.1526   70.3655   -9.5933 C.ar    1  UNL1        0.2626
     19 C          20.1122   70.7383   -8.6222 C.ar    1  UNL1        0.0795
     20 C          19.6989   71.0561   -7.3766 C.ar    1  UNL1        0.0869
     21 O          16.2835   70.6168   -7.7136 O.2     1  UNL1       -0.2464
     22 O          19.5015   70.0749  -10.7226 O.2     1  UNL1       -0.2670
     23 H          17.1841   70.0799   -9.9142 H       1  UNL1        0.1734
     24 O          21.2455   71.3159   -1.0674 O.3     1  UNL1       -0.2703
     25 P          22.2853   70.6737   -0.0208 P.3     1  UNL1        0.2208
     26 O          23.5457   70.3397   -0.7198 O.2     1  UNL1       -0.5170
     27 O          21.6529   69.3353    0.6125 O.3     1  UNL1       -0.4371
     28 O          22.5876   71.7308    1.1546 O.3     1  UNL1       -0.2865
     29 C          21.7612   72.8703    0.9099 C.3     1  UNL1        0.2611
     30 C          22.6382   74.0466    0.4773 C.3     1  UNL1        0.1582
     31 C          23.6576   74.3448    1.5825 C.3     1  UNL1        0.1625
     32 C          22.9052   74.5433    2.9026 C.3     1  UNL1        0.1686
     33 C          22.0103   73.3279    3.1538 C.3     1  UNL1        0.1760
     34 O          24.3826   75.5323    1.2575 O.3     1  UNL1       -0.3801
     35 O          23.8435   74.6768    3.9720 O.3     1  UNL1       -0.3794
     36 O          21.0540   73.2076    2.1013 O.3     1  UNL1       -0.3263
     37 H          25.0110   75.6818    1.9773 H       1  UNL1        0.2105
     38 H          23.3286   74.7987    4.7823 H       1  UNL1        0.2105
     39 C          23.4526   74.6129   -1.7476 C.2     1  UNL1        0.2231
     40 C          24.1771   74.2593   -3.0213 C.3     1  UNL1        0.0946
     41 N          23.3423   73.7037   -0.7600 N.am    1  UNL1       -0.2994
     42 O          22.9682   75.7162   -1.6120 O.2     1  UNL1       -0.2751
     43 H          23.7297   72.8207   -0.8684 H       1  UNL1        0.1496
     44 C          21.2787   73.5014    4.4864 C.3     1  UNL1        0.1693
     45 O          21.8783   72.6589    5.4726 O.3     1  UNL1       -0.3794
     46 H          21.3888   72.7981    6.2946 H       1  UNL1        0.2105
@<TRIPOS>BOND
     1    29    30    1
     2    29    28    1
     3    29    36    1
     4    30    31    1
     5    30    41    1
     6    31    32    1
     7    31    34    1
     8    32    33    1
     9    32    35    1
    10    33    44    1
    11    33    36    1
    12    44    45    1
    13    39    40    1
    14    39    41   am
    15    39    42    2
    16    41    43    1
    17    28    25    1
    18    34    37    1
    19    35    38    1
    20    45    46    1
    21    15    16   ar
    22    15    20   ar
    23    15     6    1
    24    16    17   ar
    25    16    21    2
    26    17    18   ar
    27    17    23    1
    28    18    19   ar
    29    18    22    2
    30    19    20   ar
    31     6     7    1
    32     6    11    1
    33     7     8    1
    34     7     9    1
    35     8    13    1
    36     9    10    1
    37     9    12    1
    38    10    11    1
    39    10     5    1
    40    12    14    1
    41     5     4    1
    42     4     1    1
    43     1     2    2
    44     1     3    1
    45     1    24    1
    46    24    25    1
    47    25    26    2
    48    25    27    1
@<TRIPOS>MOLECULE
UD1
 46 48 0 0 0
SMALL
GASTEIGER

@<TRIPOS>ATOM
      1 P          21.3428   70.3856   -0.8087 P.3     1  UNL1        0.2189
      2 O          22.5007   70.3347   -1.7283 O.2     1  UNL1       -0.5170
      3 O          21.7479   69.7225    0.6016 O.3     1  UNL1       -0.4371
      4 O          20.1122   69.5693   -1.4506 O.3     1  UNL1       -0.3112
      5 C          20.2446   69.6688   -2.8693 C.3     1  UNL1        0.1811
      6 C          18.6082   71.5936   -5.4276 C.3     1  UNL1        0.2383
      7 C          17.5429   70.5636   -4.9755 C.3     1  UNL1        0.1895
      8 O          16.2255   71.0982   -5.1105 O.3     1  UNL1       -0.3779
      9 C          17.9050   70.3549   -3.4820 C.3     1  UNL1        0.1713
     10 C          19.3725   70.8147   -3.3848 C.3     1  UNL1        0.1764
     11 O          19.7928   71.1924   -4.7069 O.3     1  UNL1       -0.3308
     12 O          17.0664   71.1564   -2.6471 O.3     1  UNL1       -0.3794
     13 H          15.6127   70.4109   -4.8146 H       1  UNL1        0.2106
     14 H          16.1585   70.8611   -2.7973 H       1  UNL1        0.2105
     15 N          18.8301   71.5114   -6.8718 N.ar    1  UNL1       -0.2551
     16 C          18.1601   72.3347   -7.6967 C.ar    1  UNL1        0.3323
     17 N          18.3472   72.2840   -9.0289 N.ar    1  UNL1       -0.2743
     18 C          19.2090   71.3938   -9.5606 C.ar    1  UNL1        0.2626
     19 C          19.9165   70.5170   -8.7041 C.ar    1  UNL1        0.0795
     20 C          19.7137   70.5930   -7.3712 C.ar    1  UNL1        0.0869
     21 O          17.3794   73.1431   -7.2323 O.2     1  UNL1       -0.2464
     22 O          19.3754   71.3438  -10.7652 O.2     1  UNL1       -0.2670
     23 H          17.8589   72.8887   -9.6087 H       1  UNL1        0.1734
     24 O          20.9081   71.9174   -0.5774 O.3     1  UNL1       -0.2703
     25 P          22.2035   72.8202   -0.8874 P.3     1  UNL1        0.2208
     26 O          23.4245   71.9977   -0.7401 O.2     1  UNL1       -0.5170
     27 O          22.2596   74.0527    0.1470 O.3     1  UNL1       -0.4371
     28 O          22.1167   73.3871   -2.3912 O.3     1  UNL1       -0.2865
     29 C          23.3973   73.1760   -2.9884 C.3     1  UNL1        0.2611
     30 C          24.1975   74.4789   -2.9411 C.3     1  UNL1        0.1582
     31 C          23.4241   75.5696   -3.6907 C.3     1  UNL1        0.1625
     32 C          23.0938   75.0579   -5.0968 C.3     1  UNL1        0.1686
     33 C          22.3740   73.7126   -4.9812 C.3     1  UNL1        0.1760
     34 O          24.2264   76.7483   -3.7826 O.3     1  UNL1       -0.3801
     35 O          22.2481   75.9985   -5.7613 O.3     1  UNL1       -0.3794
     36 O          23.2265   72.7630   -4.3425 O.3     1  UNL1       -0.3263
     37 H          23.7025   77.4064   -4.2597 H       1  UNL1        0.2105
     38 H          22.0646   75.6376   -6.6402 H       1  UNL1        0.2105
     39 C          25.5942   75.3287   -1.1352 C.2     1  UNL1        0.2231
     40 C          25.7932   75.7457    0.2997 C.3     1  UNL1        0.0946
     41 N          24.3913   74.8846   -1.5475 N.am    1  UNL1       -0.2994
     42 O          26.5174   75.3923   -1.9187 O.2     1  UNL1       -0.2751
     43 H          23.6524   74.8334   -0.9206 H       1  UNL1        0.1496
     44 C          22.0107   73.2082   -6.3794 C.3     1  UNL1        0.1693
     45 O          22.9477   73.7200   -7.3292 O.3     1  UNL1       -0.3794
     46 H          22.6832   73.3796   -8.1945 H       1  UNL1        0.2105
@<TRIPOS>BOND
     1    29    30    1
     2    29    28    1
     3    29    36    1
     4    30    31    1
     5    30    41    1
     6    31    32    1
     7    31    34    1
     8    32    33    1
     9    32    35    1
    10    33    44    1
    11    33    36    1
    12    44    45    1
    13    39    40    1
    14    39    41   am
    15    39    42    2
    16    41    43    1
    17    28    25    1
    18    34    37    1
    19    35    38    1
    20    45    46    1
    21    15    16   ar
    22    15    20   ar
    23    15     6    1
    24    16    17   ar
    25    16    21    2
    26    17    18   ar
    27    17    23    1
    28    18    19   ar
    29    18    22    2
    30    19    20   ar
    31     6     7    1
    32     6    11    1
    33     7     8    1
    34     7     9    1
    35     8    13    1
    36     9    10    1
    37     9    12    1
    38    10    11    1
    39    10     5    1
    40    12    14    1
    41     5     4    1
    42     4     1    1
    43     1     2    2
    44     1     3    1
    45     1    24    1
    46    24    25    1
    47    25    26    2
    48    25    27    1
@<TRIPOS>MOLECULE
UD1
 46 48 0 0 0
SMALL
GASTEIGER

@<TRIPOS>ATOM
      1 P          19.7649   72.0775   -3.0358 P.3     1  UNL1        0.2189
      2 O          19.2502   73.3974   -3.4620 O.2     1  UNL1       -0.5170
      3 O          18.6336   70.9572   -3.2763 O.3     1  UNL1       -0.4371
      4 O          20.1436   72.1293   -1.4716 O.3     1  UNL1       -0.3112
      5 C          21.0569   73.2145   -1.3026 C.3     1  UNL1        0.1811
      6 C          23.0713   72.4584    1.5780 C.3     1  UNL1        0.2383
      7 C          22.3432   71.1299    1.2539 C.3     1  UNL1        0.1895
      8 O          23.1412   70.0057    1.6261 O.3     1  UNL1       -0.3779
      9 C          22.1868   71.2116   -0.2869 C.3     1  UNL1        0.1713
     10 C          22.3188   72.7152   -0.5973 C.3     1  UNL1        0.1764
     11 O          22.4816   73.4000    0.6564 O.3     1  UNL1       -0.3308
     12 O          23.2209   70.4677   -0.9349 O.3     1  UNL1       -0.3794
     13 H          22.6333   69.2143    1.3998 H       1  UNL1        0.2106
     14 H          23.1211   69.5482   -0.6546 H       1  UNL1        0.2105
     15 N          22.8205   72.8641    2.9614 N.ar    1  UNL1       -0.2551
     16 C          21.6740   72.5040    3.5640 C.ar    1  UNL1        0.3323
     17 N          21.4185   72.8598    4.8369 N.ar    1  UNL1       -0.2743
     18 C          22.3113   73.5959    5.5289 C.ar    1  UNL1        0.2626
     19 C          23.5198   73.9869    4.9048 C.ar    1  UNL1        0.0795
     20 C          23.7529   73.6119    3.6288 C.ar    1  UNL1        0.0869
     21 O          20.8589   71.8400    2.9529 O.2     1  UNL1       -0.2464
     22 O          22.0792   73.9222    6.6783 O.2     1  UNL1       -0.2670
     23 H          20.5883   72.5873    5.2574 H       1  UNL1        0.1734
     24 O          21.0759   71.7103   -3.8933 O.3     1  UNL1       -0.2703
     25 P          21.2070   72.8277   -5.0437 P.3     1  UNL1        0.2208
     26 O          22.5058   72.6735   -5.7353 O.2     1  UNL1       -0.5170
     27 O          21.1230   74.2929   -4.3818 O.3     1  UNL1       -0.4371
     28 O          20.0098   72.6503   -6.1048 O.3     1  UNL1       -0.2865
     29 C          20.1895   71.3750   -6.7231 C.3     1  UNL1        0.2611
     30 C          20.2028   71.5479   -8.2429 C.3     1  UNL1        0.1582
     31 C          18.8801   72.1829   -8.6867 C.3     1  UNL1        0.1625
     32 C          17.7236   71.3417   -8.1363 C.3     1  UNL1        0.1686
     33 C          17.8957   71.1869   -6.6238 C.3     1  UNL1        0.1760
     34 O          18.8183   72.2124  -10.1139 O.3     1  UNL1       -0.3801
     35 O          16.4834   71.9951   -8.4132 O.3     1  UNL1       -0.3794
     36 O          19.1207   70.5101   -6.3447 O.3     1  UNL1       -0.3263
     37 H          17.9726   72.6188  -10.3485 H       1  UNL1        0.2105
     38 H          15.7841   71.4334   -8.0499 H       1  UNL1        0.2105
     39 C          21.1132   73.7354   -8.8086 C.2     1  UNL1        0.2231
     40 C          22.2607   74.6290   -9.2049 C.3     1  UNL1        0.0946
     41 N          21.3173   72.4164   -8.6274 N.am    1  UNL1       -0.2994
     42 O          20.0057   74.2038   -8.6535 O.2     1  UNL1       -0.2751
     43 H          22.2035   72.0413   -8.7517 H       1  UNL1        0.1496
     44 C          16.7278   70.3754   -6.0593 C.3     1  UNL1        0.1693
     45 O          16.1057   69.6383   -7.1137 O.3     1  UNL1       -0.3794
     46 H          15.3771   69.1425   -6.7163 H       1  UNL1        0.2105
@<TRIPOS>BOND
     1    29    30    1
     2    29    28    1
     3    29    36    1
     4    30    31    1
     5    30    41    1
     6    31    32    1
     7    31    34    1
     8    32    33    1
     9    32    35    1
    10    33    44    1
    11    33    36    1
    12    44    45    1
    13    39    40    1
    14    39    41   am
    15    39    42    2
    16    41    43    1
    17    28    25    1
    18    34    37    1
    19    35    38    1
    20    45    46    1
    21    15    16   ar
    22    15    20   ar
    23    15     6    1
    24    16    17   ar
    25    16    21    2
    26    17    18   ar
    27    17    23    1
    28    18    19   ar
    29    18    22    2
    30    19    20   ar
    31     6     7    1
    32     6    11    1
    33     7     8    1
    34     7     9    1
    35     8    13    1
    36     9    10    1
    37     9    12    1
    38    10    11    1
    39    10     5    1
    40    12    14    1
    41     5     4    1
    42     4     1    1
    43     1     2    2
    44     1     3    1
    45     1    24    1
    46    24    25    1
    47    25    26    2
    48    25    27    1
@<TRIPOS>MOLECULE
UD1
 46 48 0 0 0
SMALL
GASTEIGER

@<TRIPOS>ATOM
      1 P          19.3666   70.4708   -3.0047 P.3     1  UNL1        0.2189
      2 O          20.2999   70.3146   -4.1419 O.2     1  UNL1       -0.5170
      3 O          19.1661   69.0493   -2.2756 O.3     1  UNL1       -0.4371
      4 O          17.9456   71.0002   -3.5462 O.3     1  UNL1       -0.3112
      5 C          17.7686   72.3180   -3.0243 C.3     1  UNL1        0.1811
      6 C          17.6662   73.2584   -6.4931 C.3     1  UNL1        0.2383
      7 C          16.1975   72.9135   -6.1409 C.3     1  UNL1        0.1895
      8 O          15.2887   73.6914   -6.9207 O.3     1  UNL1       -0.3779
      9 C          16.1203   73.3090   -4.6433 C.3     1  UNL1        0.1713
     10 C          17.5896   73.3051   -4.1788 C.3     1  UNL1        0.1764
     11 O          18.3932   72.8979   -5.2993 O.3     1  UNL1       -0.3308
     12 O          15.5464   74.6099   -4.4982 O.3     1  UNL1       -0.3794
     13 H          14.3963   73.4297   -6.6549 H       1  UNL1        0.2106
     14 H          14.6514   74.5622   -4.8599 H       1  UNL1        0.2105
     15 N          18.1257   72.4680   -7.6357 N.ar    1  UNL1       -0.2551
     16 C          18.3101   73.0635   -8.8268 C.ar    1  UNL1        0.3323
     17 N          18.7358   72.3620   -9.8940 N.ar    1  UNL1       -0.2743
     18 C          18.9766   71.0398   -9.7859 C.ar    1  UNL1        0.2626
     19 C          18.7808   70.3990   -8.5393 C.ar    1  UNL1        0.0795
     20 C          18.3584   71.1276   -7.4839 C.ar    1  UNL1        0.0869
     21 O          18.0972   74.2554   -8.9401 O.2     1  UNL1       -0.2464
     22 O          19.3569   70.4036  -10.7513 O.2     1  UNL1       -0.2670
     23 H          18.8680   72.8088  -10.7444 H       1  UNL1        0.1734
     24 O          19.9704   71.5321   -1.9568 O.3     1  UNL1       -0.2703
     25 P          21.3403   70.9023   -1.3945 P.3     1  UNL1        0.2208
     26 O          22.0898   70.2789   -2.5074 O.2     1  UNL1       -0.5170
     27 O          21.0027   69.7861   -0.2843 O.3     1  UNL1       -0.4371
     28 O          22.2339   72.0645   -0.7304 O.3     1  UNL1       -0.2865
     29 C          21.3721   73.1860   -0.5289 C.3     1  UNL1        0.2611
     30 C          22.1229   74.4703   -0.8852 C.3     1  UNL1        0.1582
     31 C          23.3715   74.5821   -0.0032 C.3     1  UNL1        0.1625
     32 C          22.9475   74.4605    1.4643 C.3     1  UNL1        0.1686
     33 C          22.1370   73.1752    1.6439 C.3     1  UNL1        0.1760
     34 O          23.9995   75.8470   -0.2204 O.3     1  UNL1       -0.3801
     35 O          24.1090   74.4149    2.2952 O.3     1  UNL1       -0.3794
     36 O          20.9618   73.2293    0.8361 O.3     1  UNL1       -0.3263
     37 H          24.7782   75.8743    0.3524 H       1  UNL1        0.2105
     38 H          23.7971   74.3376    3.2080 H       1  UNL1        0.2105
     39 C          22.4159   75.5375   -3.0554 C.2     1  UNL1        0.2231
     40 C          22.8238   75.4964   -4.5059 C.3     1  UNL1        0.0946
     41 N          22.5195   74.4310   -2.2943 N.am    1  UNL1       -0.2994
     42 O          21.9936   76.5668   -2.5733 O.2     1  UNL1       -0.2751
     43 H          22.8572   73.6072   -2.6800 H       1  UNL1        0.1496
     44 C          21.7361   73.0277    3.1132 C.3     1  UNL1        0.1693
     45 O          20.7280   72.0220    3.2337 O.3     1  UNL1       -0.3794
     46 H          20.5042   71.9612    4.1722 H       1  UNL1        0.2105
@<TRIPOS>BOND
     1    29    30    1
     2    29    28    1
     3    29    36    1
     4    30    31    1
     5    30    41    1
     6    31    32    1
     7    31    34    1
     8    32    33    1
     9    32    35    1
    10    33    44    1
    11    33    36    1
    12    44    45    1
    13    39    40    1
    14    39    41   am
    15    39    42    2
    16    41    43    1
    17    28    25    1
    18    34    37    1
    19    35    38    1
    20    45    46    1
    21    15    16   ar
    22    15    20   ar
    23    15     6    1
    24    16    17   ar
    25    16    21    2
    26    17    18   ar
    27    17    23    1
    28    18    19   ar
    29    18    22    2
    30    19    20   ar
    31     6     7    1
    32     6    11    1
    33     7     8    1
    34     7     9    1
    35     8    13    1
    36     9    10    1
    37     9    12    1
    38    10    11    1
    39    10     5    1
    40    12    14    1
    41     5     4    1
    42     4     1    1
    43     1     2    2
    44     1     3    1
    45     1    24    1
    46    24    25    1
    47    25    26    2
    48    25    27    1
@<TRIPOS>MOLECULE
UD1
 46 48 0 0 0
SMALL
GASTEIGER

@<TRIPOS>ATOM
      1 P          22.8465   72.0216   -3.3065 P.3     1  UNL1        0.2189
      2 O          23.4006   70.6523   -3.2247 O.2     1  UNL1       -0.5170
      3 O          23.8739   72.9695   -4.1055 O.3     1  UNL1       -0.4371
      4 O          22.6281   72.6012   -1.8202 O.3     1  UNL1       -0.3112
      5 C          21.9362   71.5939   -1.0806 C.3     1  UNL1        0.1811
      6 C          21.6517   73.5094    1.9487 C.3     1  UNL1        0.2383
      7 C          21.4571   74.5463    0.8141 C.3     1  UNL1        0.1895
      8 O          20.5909   75.6026    1.2300 O.3     1  UNL1       -0.3779
      9 C          20.7940   73.6920   -0.2975 C.3     1  UNL1        0.1713
     10 C          21.1672   72.2431    0.0711 C.3     1  UNL1        0.1764
     11 O          21.9975   72.2983    1.2436 O.3     1  UNL1       -0.3308
     12 O          19.3758   73.8687   -0.2853 O.3     1  UNL1       -0.3794
     13 H          20.5121   76.2111    0.4824 H       1  UNL1        0.2106
     14 H          19.2094   74.8041   -0.4628 H       1  UNL1        0.2105
     15 N          22.7376   73.9146    2.8420 N.ar    1  UNL1       -0.2551
     16 C          22.7083   73.5485    4.1353 C.ar    1  UNL1        0.3323
     17 N          23.6955   73.9036    4.9788 N.ar    1  UNL1       -0.2743
     18 C          24.7317   74.6452    4.5382 C.ar    1  UNL1        0.2626
     19 C          24.7722   75.0426    3.1805 C.ar    1  UNL1        0.0795
     20 C          23.7715   74.6680    2.3549 C.ar    1  UNL1        0.0869
     21 O          21.7804   72.8795    4.5476 O.2     1  UNL1       -0.2464
     22 O          25.6224   74.9709    5.3010 O.2     1  UNL1       -0.2670
     23 H          23.6605   73.6267    5.9074 H       1  UNL1        0.1734
     24 O          21.4363   71.9846   -4.0804 O.3     1  UNL1       -0.2703
     25 P          21.5349   73.0552   -5.2777 P.3     1  UNL1        0.2208
     26 O          22.7801   72.8258   -6.0431 O.2     1  UNL1       -0.5170
     27 O          21.5480   74.5448   -4.6670 O.3     1  UNL1       -0.4371
     28 O          20.2664   72.8883   -6.2543 O.3     1  UNL1       -0.2865
     29 C          20.3151   71.5581   -6.7733 C.3     1  UNL1        0.2611
     30 C          20.2849   71.6108   -8.3018 C.3     1  UNL1        0.1582
     31 C          19.0041   72.3215   -8.7536 C.3     1  UNL1        0.1625
     32 C          17.8030   71.6286   -8.1013 C.3     1  UNL1        0.1686
     33 C          18.0191   71.5772   -6.5873 C.3     1  UNL1        0.1760
     34 O          18.8906   72.2455  -10.1758 O.3     1  UNL1       -0.3801
     35 O          16.6122   72.3633   -8.3908 O.3     1  UNL1       -0.3794
     36 O          19.1929   70.8208   -6.2932 O.3     1  UNL1       -0.3263
     37 H          18.0736   72.7040  -10.4158 H       1  UNL1        0.2105
     38 H          15.8827   71.8940   -7.9617 H       1  UNL1        0.2105
     39 C          21.3686   73.6726   -9.0151 C.2     1  UNL1        0.2231
     40 C          22.5710   74.4302   -9.5178 C.3     1  UNL1        0.0946
     41 N          21.4527   72.3474   -8.7897 N.am    1  UNL1       -0.2994
     42 O          20.3249   74.2561   -8.8141 O.2     1  UNL1       -0.2751
     43 H          22.2878   71.8801   -8.9507 H       1  UNL1        0.1496
     44 C          16.8098   70.9160   -5.9230 C.3     1  UNL1        0.1693
     45 O          16.1541   70.0650   -6.8654 O.3     1  UNL1       -0.3794
     46 H          15.4000   69.6694   -6.4078 H       1  UNL1        0.2105
@<TRIPOS>BOND
     1    29    30    1
     2    29    28    1
     3    29    36    1
     4    30    31    1
     5    30    41    1
     6    31    32    1
     7    31    34    1
     8    32    33    1
     9    32    35    1
    10    33    44    1
    11    33    36    1
    12    44    45    1
    13    39    40    1
    14    39    41   am
    15    39    42    2
    16    41    43    1
    17    28    25    1
    18    34    37    1
    19    35    38    1
    20    45    46    1
    21    15    16   ar
    22    15    20   ar
    23    15     6    1
    24    16    17   ar
    25    16    21    2
    26    17    18   ar
    27    17    23    1
    28    18    19   ar
    29    18    22    2
    30    19    20   ar
    31     6     7    1
    32     6    11    1
    33     7     8    1
    34     7     9    1
    35     8    13    1
    36     9    10    1
    37     9    12    1
    38    10    11    1
    39    10     5    1
    40    12    14    1
    41     5     4    1
    42     4     1    1
    43     1     2    2
    44     1     3    1
    45     1    24    1
    46    24    25    1
    47    25    26    2
    48    25    27    1
@<TRIPOS>MOLECULE
UD1
 46 48 0 0 0
SMALL
GASTEIGER

@<TRIPOS>ATOM
      1 P          22.9572   73.9820   -3.9732 P.3     1  UNL1        0.2189
      2 O          23.8203   72.7807   -3.9975 O.2     1  UNL1       -0.5170
      3 O          23.5345   75.0786   -5.0011 O.3     1  UNL1       -0.4371
      4 O          22.9390   74.5991   -2.4860 O.3     1  UNL1       -0.3112
      5 C          22.0758   73.7714   -1.7050 C.3     1  UNL1        0.1811
      6 C          23.0459   72.2964    1.4272 C.3     1  UNL1        0.2383
      7 C          22.0098   71.3074    0.8368 C.3     1  UNL1        0.1895
      8 O          22.2903   69.9685    1.2464 O.3     1  UNL1       -0.3779
      9 C          22.2303   71.4771   -0.6889 C.3     1  UNL1        0.1713
     10 C          22.9155   72.8513   -0.8175 C.3     1  UNL1        0.1764
     11 O          23.0167   73.4064    0.5049 O.3     1  UNL1       -0.3308
     12 O          23.0763   70.4401   -1.1905 O.3     1  UNL1       -0.3794
     13 H          21.6123   69.4057    0.8475 H       1  UNL1        0.2106
     14 H          22.6199   69.6040   -1.0274 H       1  UNL1        0.2105
     15 N          22.6468   72.7282    2.7673 N.ar    1  UNL1       -0.2551
     16 C          21.3889   72.5125    3.1897 C.ar    1  UNL1        0.3323
     17 N          20.9952   72.8955    4.4188 N.ar    1  UNL1       -0.2743
     18 C          21.8604   73.5140    5.2474 C.ar    1  UNL1        0.2626
     19 C          23.1861   73.7527    4.8132 C.ar    1  UNL1        0.0795
     20 C          23.5559   73.3534    3.5775 C.ar    1  UNL1        0.0869
     21 O          20.5969   71.9558    2.4539 O.2     1  UNL1       -0.2464
     22 O          21.5042   73.8650    6.3571 O.2     1  UNL1       -0.2670
     23 H          20.0853   72.7276    4.7088 H       1  UNL1        0.1734
     24 O          21.4609   73.5766   -4.4040 O.3     1  UNL1       -0.2703
     25 P          21.4575   73.4485   -6.0081 P.3     1  UNL1        0.2208
     26 O          22.6930   72.7655   -6.4508 O.2     1  UNL1       -0.5170
     27 O          21.3927   74.9174   -6.6643 O.3     1  UNL1       -0.4371
     28 O          20.1755   72.5959   -6.4770 O.3     1  UNL1       -0.2865
     29 C          19.0258   73.2365   -5.9212 C.3     1  UNL1        0.2611
     30 C          18.1297   72.1849   -5.2646 C.3     1  UNL1        0.1582
     31 C          17.7166   71.1503   -6.3176 C.3     1  UNL1        0.1625
     32 C          17.0939   71.8855   -7.5091 C.3     1  UNL1        0.1686
     33 C          18.0697   72.9578   -7.9984 C.3     1  UNL1        0.1760
     34 O          16.7616   70.2491   -5.7545 O.3     1  UNL1       -0.3801
     35 O          16.8360   70.9555   -8.5628 O.3     1  UNL1       -0.3794
     36 O          18.3081   73.9039   -6.9570 O.3     1  UNL1       -0.3263
     37 H          16.5304   69.6171   -6.4491 H       1  UNL1        0.2105
     38 H          16.4461   71.4592   -9.2913 H       1  UNL1        0.2105
     39 C          19.5368   70.3799   -4.4303 C.2     1  UNL1        0.2231
     40 C          20.2918   69.6961   -3.3191 C.3     1  UNL1        0.0946
     41 N          18.8636   71.5205   -4.1856 N.am    1  UNL1       -0.2994
     42 O          19.5349   69.9028   -5.5450 O.2     1  UNL1       -0.2751
     43 H          18.8648   71.9024   -3.2936 H       1  UNL1        0.1496
     44 C          17.4707   73.6764   -9.2092 C.3     1  UNL1        0.1693
     45 O          17.9916   73.1027  -10.4098 O.3     1  UNL1       -0.3794
     46 H          17.5902   73.5831  -11.1465 H       1  UNL1        0.2105
@<TRIPOS>BOND
     1    29    30    1
     2    29    28    1
     3    29    36    1
     4    30    31    1
     5    30    41    1
     6    31    32    1
     7    31    34    1
     8    32    33    1
     9    32    35    1
    10    33    44    1
    11    33    36    1
    12    44    45    1
    13    39    40    1
    14    39    41   am
    15    39    42    2
    16    41    43    1
    17    28    25    1
    18    34    37    1
    19    35    38    1
    20    45    46    1
    21    15    16   ar
    22    15    20   ar
    23    15     6    1
    24    16    17   ar
    25    16    21    2
    26    17    18   ar
    27    17    23    1
    28    18    19   ar
    29    18    22    2
    30    19    20   ar
    31     6     7    1
    32     6    11    1
    33     7     8    1
    34     7     9    1
    35     8    13    1
    36     9    10    1
    37     9    12    1
    38    10    11    1
    39    10     5    1
    40    12    14    1
    41     5     4    1
    42     4     1    1
    43     1     2    2
    44     1     3    1
    45     1    24    1
    46    24    25    1
    47    25    26    2
    48    25    27    1
@<TRIPOS>MOLECULE
UD1
 46 48 0 0 0
SMALL
GASTEIGER

@<TRIPOS>ATOM
      1 P          22.8383   71.8650   -3.3099 P.3     1  UNL1        0.2189
      2 O          23.5404   70.6246   -2.9135 O.2     1  UNL1       -0.5170
      3 O          23.7327   72.6694   -4.3802 O.3     1  UNL1       -0.4371
      4 O          22.6013   72.7856   -2.0102 O.3     1  UNL1       -0.3112
      5 C          21.8914   71.9877   -1.0617 C.3     1  UNL1        0.1811
      6 C          20.4975   73.8383    1.6878 C.3     1  UNL1        0.2383
      7 C          21.2588   74.8981    0.8528 C.3     1  UNL1        0.1895
      8 O          20.6335   76.1776    0.9584 O.3     1  UNL1       -0.3779
      9 C          21.1272   74.3350   -0.5862 C.3     1  UNL1        0.1713
     10 C          20.8217   72.8393   -0.3764 C.3     1  UNL1        0.1764
     11 O          20.8339   72.5929    1.0401 O.3     1  UNL1       -0.3308
     12 O          20.0558   74.9787   -1.2794 O.3     1  UNL1       -0.3794
     13 H          21.1537   76.7891    0.4189 H       1  UNL1        0.2106
     14 H          20.2778   75.9182   -1.3258 H       1  UNL1        0.2105
     15 N          20.9609   73.8398    3.0758 N.ar    1  UNL1       -0.2551
     16 C          21.4394   72.7073    3.6197 C.ar    1  UNL1        0.3323
     17 N          21.8761   72.6804    4.8929 N.ar    1  UNL1       -0.2743
     18 C          21.8313   73.7950    5.6502 C.ar    1  UNL1        0.2626
     19 C          21.3244   74.9926    5.0921 C.ar    1  UNL1        0.0795
     20 C          20.8979   74.9928    3.8109 C.ar    1  UNL1        0.0869
     21 O          21.4862   71.6938    2.9493 O.2     1  UNL1       -0.2464
     22 O          22.2214   73.7706    6.8029 O.2     1  UNL1       -0.2670
     23 H          22.2225   71.8559    5.2675 H       1  UNL1        0.1734
     24 O          21.4187   71.4911   -3.9685 O.3     1  UNL1       -0.2703
     25 P          21.0214   72.7107   -4.9401 P.3     1  UNL1        0.2208
     26 O          22.1028   72.9283   -5.9260 O.2     1  UNL1       -0.5170
     27 O          20.8150   74.0478   -4.0673 O.3     1  UNL1       -0.4371
     28 O          19.6537   72.3595   -5.7126 O.3     1  UNL1       -0.2865
     29 C          19.5459   73.2769   -6.8025 C.3     1  UNL1        0.2611
     30 C          18.1643   73.9329   -6.7757 C.3     1  UNL1        0.1582
     31 C          17.0903   72.8438   -6.8769 C.3     1  UNL1        0.1625
     32 C          17.3797   71.9833   -8.1113 C.3     1  UNL1        0.1686
     33 C          18.8199   71.4718   -8.0358 C.3     1  UNL1        0.1760
     34 O          15.8031   73.4509   -7.0034 O.3     1  UNL1       -0.3801
     35 O          16.4785   70.8749   -8.1432 O.3     1  UNL1       -0.3794
     36 O          19.7240   72.5759   -8.0314 O.3     1  UNL1       -0.3263
     37 H          15.1596   72.7315   -7.0635 H       1  UNL1        0.2105
     38 H          16.6957   70.3605   -8.9336 H       1  UNL1        0.2105
     39 C          18.0818   76.0161   -5.5157 C.2     1  UNL1        0.2231
     40 C          17.9101   76.7763   -4.2254 C.3     1  UNL1        0.0946
     41 N          17.9970   74.6718   -5.5226 N.am    1  UNL1       -0.2994
     42 O          18.2971   76.6146   -6.5480 O.2     1  UNL1       -0.2751
     43 H          17.8250   74.1926   -4.6966 H       1  UNL1        0.1496
     44 C          19.1089   70.5844   -9.2482 C.3     1  UNL1        0.1693
     45 O          20.1664   69.6764   -8.9332 O.3     1  UNL1       -0.3794
     46 H          20.3168   69.1375   -9.7217 H       1  UNL1        0.2105
@<TRIPOS>BOND
     1    29    30    1
     2    29    28    1
     3    29    36    1
     4    30    31    1
     5    30    41    1
     6    31    32    1
     7    31    34    1
     8    32    33    1
     9    32    35    1
    10    33    44    1
    11    33    36    1
    12    44    45    1
    13    39    40    1
    14    39    41   am
    15    39    42    2
    16    41    43    1
    17    28    25    1
    18    34    37    1
    19    35    38    1
    20    45    46    1
    21    15    16   ar
    22    15    20   ar
    23    15     6    1
    24    16    17   ar
    25    16    21    2
    26    17    18   ar
    27    17    23    1
    28    18    19   ar
    29    18    22    2
    30    19    20   ar
    31     6     7    1
    32     6    11    1
    33     7     8    1
    34     7     9    1
    35     8    13    1
    36     9    10    1
    37     9    12    1
    38    10    11    1
    39    10     5    1
    40    12    14    1
    41     5     4    1
    42     4     1    1
    43     1     2    2
    44     1     3    1
    45     1    24    1
    46    24    25    1
    47    25    26    2
    48    25    27    1
@<TRIPOS>MOLECULE
UD1
 46 48 0 0 0
SMALL
GASTEIGER

@<TRIPOS>ATOM
      1 P          22.6728   73.8830   -4.6010 P.3     1  UNL1        0.2189
      2 O          22.7673   75.3511   -4.7575 O.2     1  UNL1       -0.5170
      3 O          22.7660   73.1819   -6.0475 O.3     1  UNL1       -0.4371
      4 O          21.2665   73.5066   -3.9129 O.3     1  UNL1       -0.3112
      5 C          20.3219   74.4909   -4.3364 C.3     1  UNL1        0.1811
      6 C          18.2485   72.2920   -6.2839 C.3     1  UNL1        0.2383
      7 C          18.7369   71.4186   -5.1012 C.3     1  UNL1        0.1895
      8 O          17.7655   70.4286   -4.7616 O.3     1  UNL1       -0.3779
      9 C          18.8837   72.4629   -3.9641 C.3     1  UNL1        0.1713
     10 C          19.0036   73.8087   -4.7049 C.3     1  UNL1        0.1764
     11 O          18.9761   73.5271   -6.1146 O.3     1  UNL1       -0.3308
     12 O          17.7298   72.4498   -3.1208 O.3     1  UNL1       -0.3794
     13 H          18.1291   69.9211   -4.0228 H       1  UNL1        0.2106
     14 H          17.6766   71.5656   -2.7341 H       1  UNL1        0.2105
     15 N          18.5832   71.6671   -7.5641 N.ar    1  UNL1       -0.2551
     16 C          17.6910   70.8612   -8.1657 C.ar    1  UNL1        0.3323
     17 N          17.9704   70.2762   -9.3454 N.ar    1  UNL1       -0.2743
     18 C          19.1618   70.4837   -9.9415 C.ar    1  UNL1        0.2626
     19 C          20.1127   71.3250   -9.3163 C.ar    1  UNL1        0.0795
     20 C          19.8044   71.9034   -8.1357 C.ar    1  UNL1        0.0869
     21 O          16.6120   70.6643   -7.6405 O.2     1  UNL1       -0.2464
     22 O          19.4174   69.9514  -11.0058 O.2     1  UNL1       -0.2670
     23 H          17.3131   69.7017   -9.7675 H       1  UNL1        0.1734
     24 O          23.8801   73.3634   -3.6729 O.3     1  UNL1       -0.2703
     25 P          23.7205   74.0960   -2.2491 P.3     1  UNL1        0.2208
     26 O          22.5844   75.0420   -2.3059 O.2     1  UNL1       -0.5170
     27 O          25.0716   74.9010   -1.9046 O.3     1  UNL1       -0.4371
     28 O          23.4465   72.9964   -1.1062 O.3     1  UNL1       -0.2865
     29 C          22.0751   73.1255   -0.7271 C.3     1  UNL1        0.2611
     30 C          21.9334   72.8252    0.7662 C.3     1  UNL1        0.1582
     31 C          22.4397   71.4050    1.0420 C.3     1  UNL1        0.1625
     32 C          21.7078   70.4340    0.1094 C.3     1  UNL1        0.1686
     33 C          21.8691   70.9131   -1.3348 C.3     1  UNL1        0.1760
     34 O          22.1753   71.0582    2.4027 O.3     1  UNL1       -0.3801
     35 O          22.2677   69.1265    0.2460 O.3     1  UNL1       -0.3794
     36 O          21.2865   72.2076   -1.4812 O.3     1  UNL1       -0.3263
     37 H          22.5094   70.1599    2.5320 H       1  UNL1        0.2105
     38 H          21.7796   68.5487   -0.3576 H       1  UNL1        0.2105
     39 C          22.2288   74.3126    2.6727 C.2     1  UNL1        0.2231
     40 C          23.0441   75.3025    3.4650 C.3     1  UNL1        0.0946
     41 N          22.7252   73.7865    1.5365 N.am    1  UNL1       -0.2994
     42 O          21.1252   73.9900    3.0578 O.2     1  UNL1       -0.2751
     43 H          23.6083   74.0447    1.2280 H       1  UNL1        0.1496
     44 C          21.1690   69.9321   -2.2775 C.3     1  UNL1        0.1693
     45 O          19.8719   69.6215   -1.7646 O.3     1  UNL1       -0.3794
     46 H          19.4662   69.0022   -2.3864 H       1  UNL1        0.2105
@<TRIPOS>BOND
     1    29    30    1
     2    29    28    1
     3    29    36    1
     4    30    31    1
     5    30    41    1
     6    31    32    1
     7    31    34    1
     8    32    33    1
     9    32    35    1
    10    33    44    1
    11    33    36    1
    12    44    45    1
    13    39    40    1
    14    39    41   am
    15    39    42    2
    16    41    43    1
    17    28    25    1
    18    34    37    1
    19    35    38    1
    20    45    46    1
    21    15    16   ar
    22    15    20   ar
    23    15     6    1
    24    16    17   ar
    25    16    21    2
    26    17    18   ar
    27    17    23    1
    28    18    19   ar
    29    18    22    2
    30    19    20   ar
    31     6     7    1
    32     6    11    1
    33     7     8    1
    34     7     9    1
    35     8    13    1
    36     9    10    1
    37     9    12    1
    38    10    11    1
    39    10     5    1
    40    12    14    1
    41     5     4    1
    42     4     1    1
    43     1     2    2
    44     1     3    1
    45     1    24    1
    46    24    25    1
    47    25    26    2
    48    25    27    1
@<TRIPOS>MOLECULE
UD1
 46 48 0 0 0
SMALL
GASTEIGER

@<TRIPOS>ATOM
      1 P          19.9965   70.5920   -3.9837 P.3     1  UNL1        0.2189
      2 O          20.8293   69.4161   -3.6484 O.2     1  UNL1       -0.5170
      3 O          18.8372   70.7612   -2.8791 O.3     1  UNL1       -0.4371
      4 O          19.3283   70.3799   -5.4333 O.3     1  UNL1       -0.3112
      5 C          17.9944   70.8843   -5.3520 C.3     1  UNL1        0.1811
      6 C          19.0798   73.2230   -7.8579 C.3     1  UNL1        0.2383
      7 C          18.8523   71.9011   -8.6332 C.3     1  UNL1        0.1895
      8 O          18.4438   72.1604   -9.9767 O.3     1  UNL1       -0.3779
      9 C          17.7054   71.2421   -7.8235 C.3     1  UNL1        0.1713
     10 C          17.7760   71.9301   -6.4465 C.3     1  UNL1        0.1764
     11 O          18.8861   72.8432   -6.4788 O.3     1  UNL1       -0.3308
     12 O          16.4446   71.4894   -8.4496 O.3     1  UNL1       -0.3794
     13 H          18.3200   71.3009  -10.4027 H       1  UNL1        0.2106
     14 H          16.4849   71.0868   -9.3273 H       1  UNL1        0.2105
     15 N          20.4391   73.7220   -8.0698 N.ar    1  UNL1       -0.2551
     16 C          21.4871   72.9016   -7.8804 C.ar    1  UNL1        0.3323
     17 N          22.7481   73.3324   -8.0717 N.ar    1  UNL1       -0.2743
     18 C          22.9812   74.6054   -8.4500 C.ar    1  UNL1        0.2626
     19 C          21.8873   75.4815   -8.6470 C.ar    1  UNL1        0.0795
     20 C          20.6326   75.0217   -8.4533 C.ar    1  UNL1        0.0869
     21 O          21.2931   71.7506   -7.5394 O.2     1  UNL1       -0.2464
     22 O          24.1211   74.9973   -8.6186 O.2     1  UNL1       -0.2670
     23 H          23.4919   72.7256   -7.9352 H       1  UNL1        0.1734
     24 O          20.9158   71.9124   -4.0047 O.3     1  UNL1       -0.2703
     25 P          22.1407   71.6421   -2.9968 P.3     1  UNL1        0.2208
     26 O          23.3979   71.5269   -3.7682 O.2     1  UNL1       -0.5170
     27 O          21.8802   70.2739   -2.1892 O.3     1  UNL1       -0.4371
     28 O          22.2601   72.8637   -1.9556 O.3     1  UNL1       -0.2865
     29 C          21.0082   72.9500   -1.2726 C.3     1  UNL1        0.2611
     30 C          20.8500   74.3528   -0.6834 C.3     1  UNL1        0.1582
     31 C          22.0114   74.6261    0.2789 C.3     1  UNL1        0.1625
     32 C          22.0744   73.4907    1.3061 C.3     1  UNL1        0.1686
     33 C          22.1433   72.1529    0.5666 C.3     1  UNL1        0.1760
     34 O          21.7963   75.8701    0.9479 O.3     1  UNL1       -0.3801
     35 O          23.2371   73.6480    2.1216 O.3     1  UNL1       -0.3794
     36 O          20.9705   71.9802   -0.2279 O.3     1  UNL1       -0.3263
     37 H          22.5486   76.0020    1.5413 H       1  UNL1        0.2105
     38 H          23.2380   72.9137    2.7520 H       1  UNL1        0.2105
     39 C          22.0198   75.9355   -2.1189 C.2     1  UNL1        0.2231
     40 C          22.0338   76.9542   -3.2299 C.3     1  UNL1        0.0946
     41 N          20.8642   75.3421   -1.7629 N.am    1  UNL1       -0.2994
     42 O          23.0490   75.6504   -1.5448 O.2     1  UNL1       -0.2751
     43 H          20.0404   75.5702   -2.2221 H       1  UNL1        0.1496
     44 C          22.2393   71.0138    1.5836 C.3     1  UNL1        0.1693
     45 O          21.8513   69.7865    0.9628 O.3     1  UNL1       -0.3794
     46 H          21.9256   69.0967    1.6360 H       1  UNL1        0.2105
@<TRIPOS>BOND
     1    29    30    1
     2    29    28    1
     3    29    36    1
     4    30    31    1
     5    30    41    1
     6    31    32    1
     7    31    34    1
     8    32    33    1
     9    32    35    1
    10    33    44    1
    11    33    36    1
    12    44    45    1
    13    39    40    1
    14    39    41   am
    15    39    42    2
    16    41    43    1
    17    28    25    1
    18    34    37    1
    19    35    38    1
    20    45    46    1
    21    15    16   ar
    22    15    20   ar
    23    15     6    1
    24    16    17   ar
    25    16    21    2
    26    17    18   ar
    27    17    23    1
    28    18    19   ar
    29    18    22    2
    30    19    20   ar
    31     6     7    1
    32     6    11    1
    33     7     8    1
    34     7     9    1
    35     8    13    1
    36     9    10    1
    37     9    12    1
    38    10    11    1
    39    10     5    1
    40    12    14    1
    41     5     4    1
    42     4     1    1
    43     1     2    2
    44     1     3    1
    45     1    24    1
    46    24    25    1
    47    25    26    2
    48    25    27    1
@<TRIPOS>MOLECULE
UD1
 46 48 0 0 0
SMALL
GASTEIGER

@<TRIPOS>ATOM
      1 P          18.3338   70.6398   -2.8358 P.3     1  UNL1        0.2189
      2 O          16.9595   71.0920   -2.5269 O.2     1  UNL1       -0.5170
      3 O          18.4807   69.0791   -2.4681 O.3     1  UNL1       -0.4371
      4 O          19.3873   71.4956   -1.9695 O.3     1  UNL1       -0.3112
      5 C          20.1567   72.2645   -2.8953 C.3     1  UNL1        0.1811
      6 C          22.7291   72.3862   -0.3863 C.3     1  UNL1        0.2383
      7 C          22.5981   70.8824   -0.7353 C.3     1  UNL1        0.1895
      8 O          23.8481   70.2103   -0.5775 O.3     1  UNL1       -0.3779
      9 C          22.1799   70.9298   -2.2279 C.3     1  UNL1        0.1713
     10 C          21.6050   72.3477   -2.4109 C.3     1  UNL1        0.1764
     11 O          21.6556   73.0003   -1.1307 O.3     1  UNL1       -0.3308
     12 O          23.3157   70.7306   -3.0724 O.3     1  UNL1       -0.3794
     13 H          23.6987   69.2830   -0.8086 H       1  UNL1        0.2106
     14 H          23.6645   69.8526   -2.8687 H       1  UNL1        0.2105
     15 N          22.5516   72.6035    1.0499 N.ar    1  UNL1       -0.2551
     16 C          21.8740   71.7019    1.7814 C.ar    1  UNL1        0.3323
     17 N          21.6987   71.8740    3.1050 N.ar    1  UNL1       -0.2743
     18 C          22.1960   72.9660    3.7199 C.ar    1  UNL1        0.2626
     19 C          22.9063   73.9261    2.9607 C.ar    1  UNL1        0.0795
     20 C          23.0721   73.7259    1.6356 C.ar    1  UNL1        0.0869
     21 O          21.4195   70.7118    1.2412 O.2     1  UNL1       -0.2464
     22 O          22.0340   73.1250    4.9157 O.2     1  UNL1       -0.2670
     23 H          21.2113   71.2111    3.6181 H       1  UNL1        0.1734
     24 O          18.6295   70.8530   -4.4030 O.3     1  UNL1       -0.2703
     25 P          17.2009   70.9255   -5.1399 P.3     1  UNL1        0.2208
     26 O          16.2284   71.6149   -4.2637 O.2     1  UNL1       -0.5170
     27 O          16.6797   69.4340   -5.4497 O.3     1  UNL1       -0.4371
     28 O          17.3488   71.7384   -6.5212 O.3     1  UNL1       -0.2865
     29 C          18.6335   72.3630   -6.4990 C.3     1  UNL1        0.2611
     30 C          18.4884   73.8310   -6.9041 C.3     1  UNL1        0.1582
     31 C          17.8746   73.9056   -8.3067 C.3     1  UNL1        0.1625
     32 C          18.7167   73.0473   -9.2565 C.3     1  UNL1        0.1686
     33 C          18.8421   71.6374   -8.6753 C.3     1  UNL1        0.1760
     34 O          17.8718   75.2617   -8.7566 O.3     1  UNL1       -0.3801
     35 O          18.0807   72.9842  -10.5344 O.3     1  UNL1       -0.3794
     36 O          19.5016   71.6939   -7.4111 O.3     1  UNL1       -0.3263
     37 H          17.4781   75.2621   -9.6400 H       1  UNL1        0.2105
     38 H          18.6424   72.4351  -11.0996 H       1  UNL1        0.2105
     39 C          18.0987   75.5301   -5.2024 C.2     1  UNL1        0.2231
     40 C          17.2006   76.2373   -4.2198 C.3     1  UNL1        0.0946
     41 N          17.6162   74.5186   -5.9497 N.am    1  UNL1       -0.2994
     42 O          19.2563   75.8711   -5.3200 O.2     1  UNL1       -0.2751
     43 H          16.6899   74.2453   -5.8556 H       1  UNL1        0.1496
     44 C          19.6544   70.7628   -9.6326 C.3     1  UNL1        0.1693
     45 O          18.7893   70.2181  -10.6311 O.3     1  UNL1       -0.3794
     46 H          19.3393   69.6749  -11.2117 H       1  UNL1        0.2105
@<TRIPOS>BOND
     1    29    30    1
     2    29    28    1
     3    29    36    1
     4    30    31    1
     5    30    41    1
     6    31    32    1
     7    31    34    1
     8    32    33    1
     9    32    35    1
    10    33    44    1
    11    33    36    1
    12    44    45    1
    13    39    40    1
    14    39    41   am
    15    39    42    2
    16    41    43    1
    17    28    25    1
    18    34    37    1
    19    35    38    1
    20    45    46    1
    21    15    16   ar
    22    15    20   ar
    23    15     6    1
    24    16    17   ar
    25    16    21    2
    26    17    18   ar
    27    17    23    1
    28    18    19   ar
    29    18    22    2
    30    19    20   ar
    31     6     7    1
    32     6    11    1
    33     7     8    1
    34     7     9    1
    35     8    13    1
    36     9    10    1
    37     9    12    1
    38    10    11    1
    39    10     5    1
    40    12    14    1
    41     5     4    1
    42     4     1    1
    43     1     2    2
    44     1     3    1
    45     1    24    1
    46    24    25    1
    47    25    26    2
    48    25    27    1
@<TRIPOS>MOLECULE
UD1
 46 48 0 0 0
SMALL
GASTEIGER

@<TRIPOS>ATOM
      1 P          19.9669   70.2888   -2.8449 P.3     1  UNL1        0.2189
      2 O          18.6935   70.0702   -2.1242 O.2     1  UNL1       -0.5170
      3 O          21.0101   69.1256   -2.4563 O.3     1  UNL1       -0.4371
      4 O          20.5796   71.7187   -2.4291 O.3     1  UNL1       -0.3112
      5 C          20.4813   71.8134   -1.0072 C.3     1  UNL1        0.1811
      6 C          22.8371   72.2412    1.6750 C.3     1  UNL1        0.2383
      7 C          22.5388   70.7210    1.6592 C.3     1  UNL1        0.1895
      8 O          23.6732   69.9729    2.0982 O.3     1  UNL1       -0.3779
      9 C          22.2519   70.4611    0.1574 C.3     1  UNL1        0.1713
     10 C          21.8843   71.8501   -0.3994 C.3     1  UNL1        0.1764
     11 O          21.9167   72.7760    0.7001 O.3     1  UNL1       -0.3308
     12 O          23.4161   69.9464   -0.4926 O.3     1  UNL1       -0.3794
     13 H          23.4227   69.0393    2.0656 H       1  UNL1        0.2106
     14 H          23.6294   69.1084   -0.0610 H       1  UNL1        0.2105
     15 N          22.5745   72.8083    2.9982 N.ar    1  UNL1       -0.2551
     16 C          21.3597   72.6645    3.5556 C.ar    1  UNL1        0.3323
     17 N          21.0911   73.1723    4.7731 N.ar    1  UNL1       -0.2743
     18 C          22.0409   73.8458    5.4530 C.ar    1  UNL1        0.2626
     19 C          23.3225   74.0097    4.8754 C.ar    1  UNL1        0.0795
     20 C          23.5664   73.4856    3.6551 C.ar    1  UNL1        0.0869
     21 O          20.4926   72.0596    2.9549 O.2     1  UNL1       -0.2464
     22 O          21.7978   74.3095    6.5518 O.2     1  UNL1       -0.2670
     23 H          20.2107   73.0551    5.1621 H       1  UNL1        0.1734
     24 O          19.6975   70.2615   -4.4310 O.3     1  UNL1       -0.2703
     25 P          18.4003   71.1755   -4.6980 P.3     1  UNL1        0.2208
     26 O          18.2395   72.1399   -3.5876 O.2     1  UNL1       -0.5170
     27 O          17.0931   70.2399   -4.7886 O.3     1  UNL1       -0.4371
     28 O          18.5822   71.9764   -6.0822 O.3     1  UNL1       -0.2865
     29 C          19.8507   71.5954   -6.6178 C.3     1  UNL1        0.2611
     30 C          20.5511   72.8312   -7.1855 C.3     1  UNL1        0.1582
     31 C          19.6683   73.4518   -8.2741 C.3     1  UNL1        0.1625
     32 C          19.3228   72.3687   -9.3015 C.3     1  UNL1        0.1686
     33 C          18.7122   71.1687   -8.5744 C.3     1  UNL1        0.1760
     34 O          20.3747   74.5160   -8.9145 O.3     1  UNL1       -0.3801
     35 O          18.3826   72.8868  -10.2445 O.3     1  UNL1       -0.3794
     36 O          19.6587   70.6317   -7.6512 O.3     1  UNL1       -0.3263
     37 H          19.7839   74.8768   -9.5899 H       1  UNL1        0.2105
     38 H          18.1926   72.1739  -10.8707 H       1  UNL1        0.2105
     39 C          21.9517   73.8519   -5.4735 C.2     1  UNL1        0.2231
     40 C          22.1744   74.8556   -4.3711 C.3     1  UNL1        0.0946
     41 N          20.7681   73.8064   -6.1148 N.am    1  UNL1       -0.2994
     42 O          22.8380   73.0845   -5.7829 O.2     1  UNL1       -0.2751
     43 H          20.0586   74.4203   -5.8673 H       1  UNL1        0.1496
     44 C          18.3335   70.0939   -9.5954 C.3     1  UNL1        0.1693
     45 O          19.1223   70.2585  -10.7756 O.3     1  UNL1       -0.3794
     46 H          18.8528   69.5636  -11.3914 H       1  UNL1        0.2105
@<TRIPOS>BOND
     1    29    30    1
     2    29    28    1
     3    29    36    1
     4    30    31    1
     5    30    41    1
     6    31    32    1
     7    31    34    1
     8    32    33    1
     9    32    35    1
    10    33    44    1
    11    33    36    1
    12    44    45    1
    13    39    40    1
    14    39    41   am
    15    39    42    2
    16    41    43    1
    17    28    25    1
    18    34    37    1
    19    35    38    1
    20    45    46    1
    21    15    16   ar
    22    15    20   ar
    23    15     6    1
    24    16    17   ar
    25    16    21    2
    26    17    18   ar
    27    17    23    1
    28    18    19   ar
    29    18    22    2
    30    19    20   ar
    31     6     7    1
    32     6    11    1
    33     7     8    1
    34     7     9    1
    35     8    13    1
    36     9    10    1
    37     9    12    1
    38    10    11    1
    39    10     5    1
    40    12    14    1
    41     5     4    1
    42     4     1    1
    43     1     2    2
    44     1     3    1
    45     1    24    1
    46    24    25    1
    47    25    26    2
    48    25    27    1
@<TRIPOS>MOLECULE
UD1
 46 48 0 0 0
SMALL
GASTEIGER

@<TRIPOS>ATOM
      1 P          22.9549   72.5480   -3.3623 P.3     1  UNL1        0.2189
      2 O          23.3830   71.1389   -3.2213 O.2     1  UNL1       -0.5170
      3 O          23.8407   73.2669   -4.4986 O.3     1  UNL1       -0.4371
      4 O          23.1588   73.3132   -1.9603 O.3     1  UNL1       -0.3112
      5 C          22.0373   72.9809   -1.1404 C.3     1  UNL1        0.1811
      6 C          22.6269   73.4089    2.3804 C.3     1  UNL1        0.2383
      7 C          21.2399   72.7233    2.2996 C.3     1  UNL1        0.1895
      8 O          21.0113   71.8961    3.4410 O.3     1  UNL1       -0.3779
      9 C          21.3744   71.8670    1.0136 C.3     1  UNL1        0.1713
     10 C          22.5266   72.5345    0.2382 C.3     1  UNL1        0.1764
     11 O          22.9516   73.6775    0.9999 O.3     1  UNL1       -0.3308
     12 O          21.7020   70.5157    1.3442 O.3     1  UNL1       -0.3794
     13 H          20.1355   71.5010    3.3298 H       1  UNL1        0.2106
     14 H          20.9721   70.1739    1.8776 H       1  UNL1        0.2105
     15 N          22.5467   74.6548    3.1437 N.ar    1  UNL1       -0.2551
     16 C          23.3502   74.8385    4.2058 C.ar    1  UNL1        0.3323
     17 N          23.3008   75.9762    4.9238 N.ar    1  UNL1       -0.2743
     18 C          22.4319   76.9521    4.5916 C.ar    1  UNL1        0.2626
     19 C          21.5760   76.7694    3.4794 C.ar    1  UNL1        0.0795
     20 C          21.6501   75.6208    2.7735 C.ar    1  UNL1        0.0869
     21 O          24.1393   73.9675    4.5178 O.2     1  UNL1       -0.2464
     22 O          22.3830   77.9791    5.2429 O.2     1  UNL1       -0.2670
     23 H          23.8911   76.0937    5.6840 H       1  UNL1        0.1734
     24 O          21.4018   72.5979   -3.7797 O.3     1  UNL1       -0.2703
     25 P          21.3534   72.9436   -5.3505 P.3     1  UNL1        0.2208
     26 O          22.6605   72.6252   -5.9660 O.2     1  UNL1       -0.5170
     27 O          21.0361   74.5099   -5.5465 O.3     1  UNL1       -0.4371
     28 O          20.2004   72.0714   -6.0580 O.3     1  UNL1       -0.2865
     29 C          19.1166   72.9612   -6.3316 C.3     1  UNL1        0.2611
     30 C          17.7986   72.2828   -5.9537 C.3     1  UNL1        0.1582
     31 C          17.6523   70.9876   -6.7604 C.3     1  UNL1        0.1625
     32 C          17.8134   71.3161   -8.2484 C.3     1  UNL1        0.1686
     33 C          19.1320   72.0648   -8.4535 C.3     1  UNL1        0.1760
     34 O          16.3607   70.4225   -6.5285 O.3     1  UNL1       -0.3801
     35 O          17.8270   70.1050   -9.0064 O.3     1  UNL1       -0.3794
     36 O          19.1109   73.2884   -7.7195 O.3     1  UNL1       -0.3263
     37 H          16.3121   69.6117   -7.0535 H       1  UNL1        0.2105
     38 H          17.9307   70.3573   -9.9349 H       1  UNL1        0.2105
     39 C          16.6615   72.0697   -3.8100 C.2     1  UNL1        0.2231
     40 C          16.6637   71.7502   -2.3368 C.3     1  UNL1        0.0946
     41 N          17.8002   71.9720   -4.5227 N.am    1  UNL1       -0.2994
     42 O          15.6344   72.4156   -4.3538 O.2     1  UNL1       -0.2751
     43 H          18.6223   71.6955   -4.0878 H       1  UNL1        0.1496
     44 C          19.3181   72.3691   -9.9415 C.3     1  UNL1        0.1693
     45 O          18.1277   72.9674  -10.4583 O.3     1  UNL1       -0.3794
     46 H          18.2868   73.1424  -11.3957 H       1  UNL1        0.2105
@<TRIPOS>BOND
     1    29    30    1
     2    29    28    1
     3    29    36    1
     4    30    31    1
     5    30    41    1
     6    31    32    1
     7    31    34    1
     8    32    33    1
     9    32    35    1
    10    33    44    1
    11    33    36    1
    12    44    45    1
    13    39    40    1
    14    39    41   am
    15    39    42    2
    16    41    43    1
    17    28    25    1
    18    34    37    1
    19    35    38    1
    20    45    46    1
    21    15    16   ar
    22    15    20   ar
    23    15     6    1
    24    16    17   ar
    25    16    21    2
    26    17    18   ar
    27    17    23    1
    28    18    19   ar
    29    18    22    2
    30    19    20   ar
    31     6     7    1
    32     6    11    1
    33     7     8    1
    34     7     9    1
    35     8    13    1
    36     9    10    1
    37     9    12    1
    38    10    11    1
    39    10     5    1
    40    12    14    1
    41     5     4    1
    42     4     1    1
    43     1     2    2
    44     1     3    1
    45     1    24    1
    46    24    25    1
    47    25    26    2
    48    25    27    1
@<TRIPOS>MOLECULE
UD1
 46 48 0 0 0
SMALL
GASTEIGER

@<TRIPOS>ATOM
      1 P          22.1251   73.8588   -5.8169 P.3     1  UNL1        0.2189
      2 O          23.1687   74.7272   -6.4048 O.2     1  UNL1       -0.5170
      3 O          21.3144   74.6793   -4.6934 O.3     1  UNL1       -0.4371
      4 O          22.8168   72.5698   -5.1440 O.3     1  UNL1       -0.3112
      5 C          23.0335   72.8872   -3.7682 C.3     1  UNL1        0.1811
      6 C          22.3139   71.0238   -0.7787 C.3     1  UNL1        0.2383
      7 C          21.0045   70.9545   -1.6040 C.3     1  UNL1        0.1895
      8 O          20.3052   69.7353   -1.3515 O.3     1  UNL1       -0.3779
      9 C          21.5351   70.9967   -3.0606 C.3     1  UNL1        0.1713
     10 C          22.9418   71.6118   -2.9290 C.3     1  UNL1        0.1764
     11 O          23.1458   71.9245   -1.5405 O.3     1  UNL1       -0.3308
     12 O          21.6080   69.6771   -3.6050 O.3     1  UNL1       -0.3794
     13 H          19.5036   69.7549   -1.8924 H       1  UNL1        0.2106
     14 H          20.7078   69.3252   -3.6057 H       1  UNL1        0.2105
     15 N          22.0578   71.5632    0.5573 N.ar    1  UNL1       -0.2551
     16 C          22.5499   70.9307    1.6367 C.ar    1  UNL1        0.3323
     17 N          22.3334   71.4063    2.8774 N.ar    1  UNL1       -0.2743
     18 C          21.6066   72.5275    3.0580 C.ar    1  UNL1        0.2626
     19 C          21.0776   73.2000    1.9307 C.ar    1  UNL1        0.0795
     20 C          21.3145   72.7041    0.6974 C.ar    1  UNL1        0.0869
     21 O          23.2073   69.9183    1.4901 O.2     1  UNL1       -0.2464
     22 O          21.4062   72.9557    4.1796 O.2     1  UNL1       -0.2670
     23 H          22.6998   70.9398    3.6444 H       1  UNL1        0.1734
     24 O          21.1107   73.3820   -6.9712 O.3     1  UNL1       -0.2703
     25 P          20.8635   74.6528   -7.9268 P.3     1  UNL1        0.2208
     26 O          21.7789   74.5829   -9.0870 O.2     1  UNL1       -0.5170
     27 O          21.1446   76.0073   -7.1032 O.3     1  UNL1       -0.4371
     28 O          19.3396   74.6479   -8.4448 O.3     1  UNL1       -0.2865
     29 C          18.5658   73.9751   -7.4500 C.3     1  UNL1        0.2611
     30 C          17.4376   73.1964   -8.1288 C.3     1  UNL1        0.1582
     31 C          16.5641   74.1720   -8.9255 C.3     1  UNL1        0.1625
     32 C          16.1088   75.2978   -7.9909 C.3     1  UNL1        0.1686
     33 C          17.3378   75.9200   -7.3247 C.3     1  UNL1        0.1760
     34 O          15.4237   73.4825   -9.4409 O.3     1  UNL1       -0.3801
     35 O          15.4163   76.2944   -8.7450 O.3     1  UNL1       -0.3794
     36 O          18.0166   74.9336   -6.5483 O.3     1  UNL1       -0.3263
     37 H          14.9037   74.1320   -9.9339 H       1  UNL1        0.2105
     38 H          15.1487   76.9827   -8.1196 H       1  UNL1        0.2105
     39 C          18.4206   71.0083   -8.5534 C.2     1  UNL1        0.2231
     40 C          19.0081   69.9800   -9.4859 C.3     1  UNL1        0.0946
     41 N          18.0080   72.1969   -9.0343 N.am    1  UNL1       -0.2994
     42 O          18.3198   70.7660   -7.3696 O.2     1  UNL1       -0.2751
     43 H          18.0888   72.3912   -9.9816 H       1  UNL1        0.1496
     44 C          16.8965   77.0672   -6.4135 C.3     1  UNL1        0.1693
     45 O          17.7029   78.2184   -6.6717 O.3     1  UNL1       -0.3794
     46 H          17.3931   78.9159   -6.0783 H       1  UNL1        0.2105
@<TRIPOS>BOND
     1    29    30    1
     2    29    28    1
     3    29    36    1
     4    30    31    1
     5    30    41    1
     6    31    32    1
     7    31    34    1
     8    32    33    1
     9    32    35    1
    10    33    44    1
    11    33    36    1
    12    44    45    1
    13    39    40    1
    14    39    41   am
    15    39    42    2
    16    41    43    1
    17    28    25    1
    18    34    37    1
    19    35    38    1
    20    45    46    1
    21    15    16   ar
    22    15    20   ar
    23    15     6    1
    24    16    17   ar
    25    16    21    2
    26    17    18   ar
    27    17    23    1
    28    18    19   ar
    29    18    22    2
    30    19    20   ar
    31     6     7    1
    32     6    11    1
    33     7     8    1
    34     7     9    1
    35     8    13    1
    36     9    10    1
    37     9    12    1
    38    10    11    1
    39    10     5    1
    40    12    14    1
    41     5     4    1
    42     4     1    1
    43     1     2    2
    44     1     3    1
    45     1    24    1
    46    24    25    1
    47    25    26    2
    48    25    27    1
@<TRIPOS>MOLECULE
UD1
 46 48 0 0 0
SMALL
GASTEIGER

@<TRIPOS>ATOM
      1 P          19.1172   75.1278   -3.0621 P.3     1  UNL1        0.2189
      2 O          18.1418   75.4396   -1.9944 O.2     1  UNL1       -0.5170
      3 O          18.6901   75.8855   -4.4172 O.3     1  UNL1       -0.4371
      4 O          19.1389   73.5387   -3.3211 O.3     1  UNL1       -0.3112
      5 C          18.0546   72.9830   -2.5755 C.3     1  UNL1        0.1811
      6 C          17.9747   70.4725   -5.1481 C.3     1  UNL1        0.2383
      7 C          19.2264   70.1240   -4.3044 C.3     1  UNL1        0.1895
      8 O          19.4721   68.7173   -4.3114 O.3     1  UNL1       -0.3779
      9 C          18.8106   70.6062   -2.8903 C.3     1  UNL1        0.1713
     10 C          17.6804   71.6190   -3.1574 C.3     1  UNL1        0.1764
     11 O          17.5237   71.7218   -4.5829 O.3     1  UNL1       -0.3308
     12 O          18.3336   69.5093   -2.1079 O.3     1  UNL1       -0.3794
     13 H          20.2606   68.5680   -3.7715 H       1  UNL1        0.2106
     14 H          19.0666   68.8845   -2.0269 H       1  UNL1        0.2105
     15 N          18.3290   70.6418   -6.5578 N.ar    1  UNL1       -0.2551
     16 C          17.3889   70.4806   -7.5052 C.ar    1  UNL1        0.3323
     17 N          17.6856   70.6340   -8.8093 N.ar    1  UNL1       -0.2743
     18 C          18.9416   70.9449   -9.1884 C.ar    1  UNL1        0.2626
     19 C          19.9424   71.1117   -8.2018 C.ar    1  UNL1        0.0795
     20 C          19.6162   70.9572   -6.9006 C.ar    1  UNL1        0.0869
     21 O          16.2516   70.2001   -7.1790 O.2     1  UNL1       -0.2464
     22 O          19.2120   71.0792  -10.3675 O.2     1  UNL1       -0.2670
     23 H          16.9939   70.5186   -9.4789 H       1  UNL1        0.1734
     24 O          20.5818   75.6178   -2.6109 O.3     1  UNL1       -0.2703
     25 P          20.6917   75.3573   -1.0269 P.3     1  UNL1        0.2208
     26 O          19.4441   75.8004   -0.3665 O.2     1  UNL1       -0.5170
     27 O          21.9369   76.1860   -0.4311 O.3     1  UNL1       -0.4371
     28 O          20.9144   73.7868   -0.7542 O.3     1  UNL1       -0.2865
     29 C          22.3128   73.5346   -0.9025 C.3     1  UNL1        0.2611
     30 C          22.5160   72.3729   -1.8768 C.3     1  UNL1        0.1582
     31 C          21.7970   71.1325   -1.3347 C.3     1  UNL1        0.1625
     32 C          22.2775   70.8741    0.0972 C.3     1  UNL1        0.1686
     33 C          22.0894   72.1482    0.9235 C.3     1  UNL1        0.1760
     34 O          22.1025   70.0045   -2.1567 O.3     1  UNL1       -0.3801
     35 O          21.5143   69.8123    0.6732 O.3     1  UNL1       -0.3794
     36 O          22.8720   73.2037    0.3668 O.3     1  UNL1       -0.3263
     37 H          21.6306   69.2487   -1.7806 H       1  UNL1        0.2105
     38 H          21.8482   69.6835    1.5723 H       1  UNL1        0.2105
     39 C          22.7806   72.8876   -4.2431 C.2     1  UNL1        0.2231
     40 C          22.2103   73.2539   -5.5895 C.3     1  UNL1        0.0946
     41 N          21.9624   72.7283   -3.1851 N.am    1  UNL1       -0.2994
     42 O          23.9765   72.7370   -4.1119 O.2     1  UNL1       -0.2751
     43 H          21.0053   72.8490   -3.2898 H       1  UNL1        0.1496
     44 C          22.5363   71.8909    2.3641 C.3     1  UNL1        0.1693
     45 O          21.3917   71.6289    3.1787 O.3     1  UNL1       -0.3794
     46 H          21.7166   71.4729    4.0758 H       1  UNL1        0.2105
@<TRIPOS>BOND
     1    29    30    1
     2    29    28    1
     3    29    36    1
     4    30    31    1
     5    30    41    1
     6    31    32    1
     7    31    34    1
     8    32    33    1
     9    32    35    1
    10    33    44    1
    11    33    36    1
    12    44    45    1
    13    39    40    1
    14    39    41   am
    15    39    42    2
    16    41    43    1
    17    28    25    1
    18    34    37    1
    19    35    38    1
    20    45    46    1
    21    15    16   ar
    22    15    20   ar
    23    15     6    1
    24    16    17   ar
    25    16    21    2
    26    17    18   ar
    27    17    23    1
    28    18    19   ar
    29    18    22    2
    30    19    20   ar
    31     6     7    1
    32     6    11    1
    33     7     8    1
    34     7     9    1
    35     8    13    1
    36     9    10    1
    37     9    12    1
    38    10    11    1
    39    10     5    1
    40    12    14    1
    41     5     4    1
    42     4     1    1
    43     1     2    2
    44     1     3    1
    45     1    24    1
    46    24    25    1
    47    25    26    2
    48    25    27    1
@<TRIPOS>MOLECULE
UD1
 46 48 0 0 0
SMALL
GASTEIGER

@<TRIPOS>ATOM
      1 P          22.1014   70.6859    0.0693 P.3     1  UNL1        0.2189
      2 O          23.2421   71.3297   -0.6185 O.2     1  UNL1       -0.5170
      3 O          22.6193   69.9766    1.4188 O.3     1  UNL1       -0.4371
      4 O          21.4461   69.5795   -0.8999 O.3     1  UNL1       -0.3112
      5 C          20.5001   70.2606   -1.7254 C.3     1  UNL1        0.1811
      6 C          20.2496   71.0080   -5.2334 C.3     1  UNL1        0.2383
      7 C          20.9133   72.2640   -4.6154 C.3     1  UNL1        0.1895
      8 O          21.7917   72.8906   -5.5508 O.3     1  UNL1       -0.3779
      9 C          21.7082   71.6613   -3.4279 C.3     1  UNL1        0.1713
     10 C          21.0184   70.3090   -3.1636 C.3     1  UNL1        0.1764
     11 O          19.9187   70.2006   -4.0835 O.3     1  UNL1       -0.3308
     12 O          23.0779   71.4695   -3.7886 O.3     1  UNL1       -0.3794
     13 H          22.1702   73.6618   -5.1065 H       1  UNL1        0.2106
     14 H          23.4360   72.3421   -3.9993 H       1  UNL1        0.2105
     15 N          19.0409   71.3707   -5.9744 N.ar    1  UNL1       -0.2551
     16 C          19.1095   71.5773   -7.3010 C.ar    1  UNL1        0.3323
     17 N          18.0131   71.9081   -8.0086 N.ar    1  UNL1       -0.2743
     18 C          16.8225   72.0472   -7.3914 C.ar    1  UNL1        0.2626
     19 C          16.7372   71.8385   -5.9943 C.ar    1  UNL1        0.0795
     20 C          17.8515   71.5023   -5.3098 C.ar    1  UNL1        0.0869
     21 O          20.1762   71.4555   -7.8720 O.2     1  UNL1       -0.2464
     22 O          15.8315   72.3509   -8.0295 O.2     1  UNL1       -0.2670
     23 H          18.0800   72.0488   -8.9657 H       1  UNL1        0.1734
     24 O          20.9984   71.7986    0.4360 O.3     1  UNL1       -0.2703
     25 P          21.7953   73.1677    0.7183 P.3     1  UNL1        0.2208
     26 O          21.0171   74.3093    0.1892 O.2     1  UNL1       -0.5170
     27 O          23.2304   73.1141   -0.0097 O.3     1  UNL1       -0.4371
     28 O          22.0059   73.3506    2.3034 O.3     1  UNL1       -0.2865
     29 C          21.9681   74.7542    2.5674 C.3     1  UNL1        0.2611
     30 C          23.2513   75.1667    3.2907 C.3     1  UNL1        0.1582
     31 C          23.3674   74.3734    4.5972 C.3     1  UNL1        0.1625
     32 C          22.0765   74.5613    5.4011 C.3     1  UNL1        0.1686
     33 C          20.8820   74.1913    4.5193 C.3     1  UNL1        0.1760
     34 O          24.4803   74.8552    5.3526 O.3     1  UNL1       -0.3801
     35 O          22.1029   73.7150    6.5521 O.3     1  UNL1       -0.3794
     36 O          20.8368   75.0528    3.3825 O.3     1  UNL1       -0.3263
     37 H          24.5161   74.3295    6.1636 H       1  UNL1        0.2105
     38 H          21.2734   73.8640    7.0279 H       1  UNL1        0.2105
     39 C          25.0053   75.8767    1.7567 C.2     1  UNL1        0.2231
     40 C          26.1952   75.5819    0.8794 C.3     1  UNL1        0.0946
     41 N          24.4075   74.8809    2.4388 N.am    1  UNL1       -0.2994
     42 O          24.5856   77.0105    1.8480 O.2     1  UNL1       -0.2751
     43 H          24.7431   73.9734    2.3657 H       1  UNL1        0.1496
     44 C          19.5892   74.3445    5.3234 C.3     1  UNL1        0.1693
     45 O          19.3312   73.1385    6.0454 O.3     1  UNL1       -0.3794
     46 H          18.5103   73.2769    6.5369 H       1  UNL1        0.2105
@<TRIPOS>BOND
     1    29    30    1
     2    29    28    1
     3    29    36    1
     4    30    31    1
     5    30    41    1
     6    31    32    1
     7    31    34    1
     8    32    33    1
     9    32    35    1
    10    33    44    1
    11    33    36    1
    12    44    45    1
    13    39    40    1
    14    39    41   am
    15    39    42    2
    16    41    43    1
    17    28    25    1
    18    34    37    1
    19    35    38    1
    20    45    46    1
    21    15    16   ar
    22    15    20   ar
    23    15     6    1
    24    16    17   ar
    25    16    21    2
    26    17    18   ar
    27    17    23    1
    28    18    19   ar
    29    18    22    2
    30    19    20   ar
    31     6     7    1
    32     6    11    1
    33     7     8    1
    34     7     9    1
    35     8    13    1
    36     9    10    1
    37     9    12    1
    38    10    11    1
    39    10     5    1
    40    12    14    1
    41     5     4    1
    42     4     1    1
    43     1     2    2
    44     1     3    1
    45     1    24    1
    46    24    25    1
    47    25    26    2
    48    25    27    1
@<TRIPOS>MOLECULE
UD1
 46 48 0 0 0
SMALL
GASTEIGER

@<TRIPOS>ATOM
      1 P          22.6412   72.9799   -4.3048 P.3     1  UNL1        0.2189
      2 O          21.4044   73.2738   -3.5481 O.2     1  UNL1       -0.5170
      3 O          23.4251   71.7627   -3.6001 O.3     1  UNL1       -0.4371
      4 O          23.5831   74.2858   -4.3207 O.3     1  UNL1       -0.3112
      5 C          24.3178   74.2812   -3.0957 C.3     1  UNL1        0.1811
      6 C          27.4146   75.7364   -4.1998 C.3     1  UNL1        0.2383
      7 C          26.3516   76.2982   -5.1768 C.3     1  UNL1        0.1895
      8 O          26.7161   77.6008   -5.6348 O.3     1  UNL1       -0.3779
      9 C          25.0869   76.3603   -4.2814 C.3     1  UNL1        0.1713
     10 C          25.3888   75.3722   -3.1381 C.3     1  UNL1        0.1764
     11 O          26.6740   74.7857   -3.4054 O.3     1  UNL1       -0.3308
     12 O          24.8987   77.6824   -3.7722 O.3     1  UNL1       -0.3794
     13 H          26.0170   77.8920   -6.2364 H       1  UNL1        0.2106
     14 H          24.7746   78.2609   -4.5363 H       1  UNL1        0.2105
     15 N          28.4918   75.0692   -4.9319 N.ar    1  UNL1       -0.2551
     16 C          29.4875   74.4718   -4.2542 C.ar    1  UNL1        0.3323
     17 N          30.4891   73.8472   -4.9014 N.ar    1  UNL1       -0.2743
     18 C          30.5139   73.8191   -6.2492 C.ar    1  UNL1        0.2626
     19 C          29.4752   74.4491   -6.9751 C.ar    1  UNL1        0.0795
     20 C          28.4799   75.0638   -6.3007 C.ar    1  UNL1        0.0869
     21 O          29.4791   74.4886   -3.0384 O.2     1  UNL1       -0.2464
     22 O          31.4216   73.2588   -6.8354 O.2     1  UNL1       -0.2670
     23 H          31.1966   73.4174   -4.3966 H       1  UNL1        0.1734
     24 O          22.2627   72.5731   -5.8147 O.3     1  UNL1       -0.2703
     25 P          20.9345   73.3963   -6.1989 P.3     1  UNL1        0.2208
     26 O          20.8514   73.5400   -7.6691 O.2     1  UNL1       -0.5170
     27 O          20.9913   74.8551   -5.5202 O.3     1  UNL1       -0.4371
     28 O          19.6384   72.6067   -5.6629 O.3     1  UNL1       -0.2865
     29 C          19.7434   71.2646   -6.1414 C.3     1  UNL1        0.2611
     30 C          18.4737   70.9032   -6.9142 C.3     1  UNL1        0.1582
     31 C          17.2625   71.0539   -5.9869 C.3     1  UNL1        0.1625
     32 C          17.5107   70.2303   -4.7188 C.3     1  UNL1        0.1686
     33 C          18.8518   70.6448   -4.1098 C.3     1  UNL1        0.1760
     34 O          16.0899   70.5773   -6.6496 O.3     1  UNL1       -0.3801
     35 O          16.4621   70.4725   -3.7788 O.3     1  UNL1       -0.3794
     36 O          19.9046   70.3786   -5.0358 O.3     1  UNL1       -0.3263
     37 H          15.3543   70.6908   -6.0320 H       1  UNL1        0.2105
     38 H          16.6578   69.9364   -2.9972 H       1  UNL1        0.2105
     39 C          17.5397   72.8891   -7.9715 C.2     1  UNL1        0.2231
     40 C          17.3887   73.8118   -9.1540 C.3     1  UNL1        0.0946
     41 N          18.3271   71.8001   -8.0624 N.am    1  UNL1       -0.2994
     42 O          16.9517   73.1268   -6.9381 O.2     1  UNL1       -0.2751
     43 H          18.7975   71.6095   -8.8894 H       1  UNL1        0.1496
     44 C          19.0940   69.8508   -2.8245 C.3     1  UNL1        0.1693
     45 O          18.2999   68.6628   -2.8411 O.3     1  UNL1       -0.3794
     46 H          18.4816   68.1933   -2.0158 H       1  UNL1        0.2105
@<TRIPOS>BOND
     1    29    30    1
     2    29    28    1
     3    29    36    1
     4    30    31    1
     5    30    41    1
     6    31    32    1
     7    31    34    1
     8    32    33    1
     9    32    35    1
    10    33    44    1
    11    33    36    1
    12    44    45    1
    13    39    40    1
    14    39    41   am
    15    39    42    2
    16    41    43    1
    17    28    25    1
    18    34    37    1
    19    35    38    1
    20    45    46    1
    21    15    16   ar
    22    15    20   ar
    23    15     6    1
    24    16    17   ar
    25    16    21    2
    26    17    18   ar
    27    17    23    1
    28    18    19   ar
    29    18    22    2
    30    19    20   ar
    31     6     7    1
    32     6    11    1
    33     7     8    1
    34     7     9    1
    35     8    13    1
    36     9    10    1
    37     9    12    1
    38    10    11    1
    39    10     5    1
    40    12    14    1
    41     5     4    1
    42     4     1    1
    43     1     2    2
    44     1     3    1
    45     1    24    1
    46    24    25    1
    47    25    26    2
    48    25    27    1
@<TRIPOS>MOLECULE
UD1
 46 48 0 0 0
SMALL
GASTEIGER

@<TRIPOS>ATOM
      1 P          22.2341   70.4350    0.1546 P.3     1  UNL1        0.2189
      2 O          20.9021   69.9785   -0.2995 O.2     1  UNL1       -0.5170
      3 O          23.2626   69.1964    0.1316 O.3     1  UNL1       -0.4371
      4 O          22.1212   71.0097    1.6546 O.3     1  UNL1       -0.3112
      5 C          22.2059   72.4325    1.5602 C.3     1  UNL1        0.1811
      6 C          20.1934   74.0467    4.0644 C.3     1  UNL1        0.2383
      7 C          20.7872   75.2116    3.2333 C.3     1  UNL1        0.1895
      8 O          19.8961   76.3272    3.2076 O.3     1  UNL1       -0.3779
      9 C          20.9166   74.5742    1.8254 C.3     1  UNL1        0.1713
     10 C          20.9187   73.0579    2.0997 C.3     1  UNL1        0.1764
     11 O          20.8480   72.8790    3.5246 O.3     1  UNL1       -0.3308
     12 O          19.8036   74.9396    1.0066 O.3     1  UNL1       -0.3794
     13 H          20.3228   77.0145    2.6776 H       1  UNL1        0.2106
     14 H          19.8234   75.9021    0.9217 H       1  UNL1        0.2105
     15 N          20.5113   74.2066    5.4839 N.ar    1  UNL1       -0.2551
     16 C          21.7707   74.0096    5.9110 C.ar    1  UNL1        0.3323
     17 N          22.0925   74.1536    7.2102 N.ar    1  UNL1       -0.2743
     18 C          21.1476   74.4911    8.1109 C.ar    1  UNL1        0.2626
     19 C          19.8165   74.6957    7.6758 C.ar    1  UNL1        0.0795
     20 C          19.5224   74.5498    6.3660 C.ar    1  UNL1        0.0869
     21 O          22.6340   73.7049    5.1107 O.2     1  UNL1       -0.2464
     22 O          21.4365   74.6169    9.2866 O.2     1  UNL1       -0.2670
     23 H          23.0069   74.0122    7.5000 H       1  UNL1        0.1734
     24 O          22.7670   71.5946   -0.8254 O.3     1  UNL1       -0.2703
     25 P          22.4137   71.1336   -2.3261 P.3     1  UNL1        0.2208
     26 O          21.2742   70.1904   -2.2969 O.2     1  UNL1       -0.5170
     27 O          23.6933   70.4081   -2.9806 O.3     1  UNL1       -0.4371
     28 O          22.0209   72.4226   -3.2063 O.3     1  UNL1       -0.2865
     29 C          23.2426   72.9772   -3.6972 C.3     1  UNL1        0.2611
     30 C          23.3051   74.4619   -3.3341 C.3     1  UNL1        0.1582
     31 C          22.0989   75.1797   -3.9501 C.3     1  UNL1        0.1625
     32 C          22.0625   74.8767   -5.4517 C.3     1  UNL1        0.1686
     33 C          22.0907   73.3603   -5.6550 C.3     1  UNL1        0.1760
     34 O          22.2240   76.5882   -3.7453 O.3     1  UNL1       -0.3801
     35 O          20.8663   75.4142   -6.0189 O.3     1  UNL1       -0.3794
     36 O          23.2972   72.8237   -5.1138 O.3     1  UNL1       -0.3263
     37 H          21.4462   76.9991   -4.1471 H       1  UNL1        0.2105
     38 H          20.8837   75.2006   -6.9627 H       1  UNL1        0.2105
     39 C          24.3995   74.9259   -1.2078 C.2     1  UNL1        0.2231
     40 C          24.3671   75.0796    0.2914 C.3     1  UNL1        0.0946
     41 N          23.2740   74.6118   -1.8778 N.am    1  UNL1       -0.2994
     42 O          25.4392   75.0844   -1.8112 O.2     1  UNL1       -0.2751
     43 H          22.4419   74.4847   -1.3951 H       1  UNL1        0.1496
     44 C          22.0219   73.0462   -7.1509 C.3     1  UNL1        0.1693
     45 O          22.9688   73.8549   -7.8519 O.3     1  UNL1       -0.3794
     46 H          22.8929   73.6266   -8.7882 H       1  UNL1        0.2105
@<TRIPOS>BOND
     1    29    30    1
     2    29    28    1
     3    29    36    1
     4    30    31    1
     5    30    41    1
     6    31    32    1
     7    31    34    1
     8    32    33    1
     9    32    35    1
    10    33    44    1
    11    33    36    1
    12    44    45    1
    13    39    40    1
    14    39    41   am
    15    39    42    2
    16    41    43    1
    17    28    25    1
    18    34    37    1
    19    35    38    1
    20    45    46    1
    21    15    16   ar
    22    15    20   ar
    23    15     6    1
    24    16    17   ar
    25    16    21    2
    26    17    18   ar
    27    17    23    1
    28    18    19   ar
    29    18    22    2
    30    19    20   ar
    31     6     7    1
    32     6    11    1
    33     7     8    1
    34     7     9    1
    35     8    13    1
    36     9    10    1
    37     9    12    1
    38    10    11    1
    39    10     5    1
    40    12    14    1
    41     5     4    1
    42     4     1    1
    43     1     2    2
    44     1     3    1
    45     1    24    1
    46    24    25    1
    47    25    26    2
    48    25    27    1
@<TRIPOS>MOLECULE
UD1
 46 48 0 0 0
SMALL
GASTEIGER

@<TRIPOS>ATOM
      1 P          22.9347   71.8328   -3.2782 P.3     1  UNL1        0.2189
      2 O          23.7228   70.6002   -3.0582 O.2     1  UNL1       -0.5170
      3 O          23.8016   72.8765   -4.1452 O.3     1  UNL1       -0.4371
      4 O          22.5653   72.4937   -1.8571 O.3     1  UNL1       -0.3112
      5 C          22.0229   71.4517   -1.0445 C.3     1  UNL1        0.1811
      6 C          21.1209   73.3109    1.8978 C.3     1  UNL1        0.2383
      7 C          21.0763   74.3523    0.7517 C.3     1  UNL1        0.1895
      8 O          20.0998   75.3605    1.0150 O.3     1  UNL1       -0.3779
      9 C          20.6599   73.4824   -0.4628 C.3     1  UNL1        0.1713
     10 C          21.0340   72.0481   -0.0417 C.3     1  UNL1        0.1764
     11 O          21.6435   72.1271    1.2581 O.3     1  UNL1       -0.3308
     12 O          19.2542   73.5911   -0.6977 O.3     1  UNL1       -0.3794
     13 H          20.1226   75.9745    0.2680 H       1  UNL1        0.2106
     14 H          19.0755   74.5198   -0.8969 H       1  UNL1        0.2105
     15 N          22.0133   73.7554    2.9690 N.ar    1  UNL1       -0.2551
     16 C          21.5315   73.9168    4.2137 C.ar    1  UNL1        0.3323
     17 N          22.3302   74.3207    5.2192 N.ar    1  UNL1       -0.2743
     18 C          23.6332   74.5804    4.9896 C.ar    1  UNL1        0.2626
     19 C          24.1522   74.4203    3.6827 C.ar    1  UNL1        0.0795
     20 C          23.3301   74.0088    2.6938 C.ar    1  UNL1        0.0869
     21 O          20.3585   73.6865    4.4366 O.2     1  UNL1       -0.2464
     22 O          24.3552   74.9502    5.8969 O.2     1  UNL1       -0.2670
     23 H          21.9669   74.4273    6.1118 H       1  UNL1        0.1734
     24 O          21.5813   71.4704   -4.0692 O.3     1  UNL1       -0.2703
     25 P          21.3544   72.6324   -5.1590 P.3     1  UNL1        0.2208
     26 O          22.5546   72.7454   -6.0166 O.2     1  UNL1       -0.5170
     27 O          21.0998   74.0327   -4.4062 O.3     1  UNL1       -0.4371
     28 O          20.0763   72.2741   -6.0692 O.3     1  UNL1       -0.2865
     29 C          18.9974   73.0893   -5.6082 C.3     1  UNL1        0.2611
     30 C          17.8995   72.1945   -5.0302 C.3     1  UNL1        0.1582
     31 C          17.4195   71.2251   -6.1162 C.3     1  UNL1        0.1625
     32 C          17.0166   72.0351   -7.3530 C.3     1  UNL1        0.1686
     33 C          18.1824   72.9398   -7.7576 C.3     1  UNL1        0.1760
     34 O          16.2944   70.4870   -5.6358 O.3     1  UNL1       -0.3801
     35 O          16.7055   71.1452   -8.4266 O.3     1  UNL1       -0.3794
     36 O          18.4779   73.8486   -6.6977 O.3     1  UNL1       -0.3263
     37 H          16.0262   69.8910   -6.3487 H       1  UNL1        0.2105
     38 H          16.4586   71.6954   -9.1834 H       1  UNL1        0.2105
     39 C          18.3112   70.0951   -3.8652 C.2     1  UNL1        0.2231
     40 C          18.8590   69.3150   -2.6975 C.3     1  UNL1        0.0946
     41 N          18.4319   71.4362   -3.8962 N.am    1  UNL1       -0.2994
     42 O          17.7610   69.5153   -4.7770 O.2     1  UNL1       -0.2751
     43 H          18.8720   71.9004   -3.1665 H       1  UNL1        0.1496
     44 C          17.8020   73.7297   -9.0116 C.3     1  UNL1        0.1693
     45 O          18.2148   73.0073  -10.1735 O.3     1  UNL1       -0.3794
     46 H          17.9572   73.5382  -10.9392 H       1  UNL1        0.2105
@<TRIPOS>BOND
     1    29    30    1
     2    29    28    1
     3    29    36    1
     4    30    31    1
     5    30    41    1
     6    31    32    1
     7    31    34    1
     8    32    33    1
     9    32    35    1
    10    33    44    1
    11    33    36    1
    12    44    45    1
    13    39    40    1
    14    39    41   am
    15    39    42    2
    16    41    43    1
    17    28    25    1
    18    34    37    1
    19    35    38    1
    20    45    46    1
    21    15    16   ar
    22    15    20   ar
    23    15     6    1
    24    16    17   ar
    25    16    21    2
    26    17    18   ar
    27    17    23    1
    28    18    19   ar
    29    18    22    2
    30    19    20   ar
    31     6     7    1
    32     6    11    1
    33     7     8    1
    34     7     9    1
    35     8    13    1
    36     9    10    1
    37     9    12    1
    38    10    11    1
    39    10     5    1
    40    12    14    1
    41     5     4    1
    42     4     1    1
    43     1     2    2
    44     1     3    1
    45     1    24    1
    46    24    25    1
    47    25    26    2
    48    25    27    1
@<TRIPOS>MOLECULE
UD1
 46 48 0 0 0
SMALL
GASTEIGER

@<TRIPOS>ATOM
      1 P          22.5032   73.0883   -4.6235 P.3     1  UNL1        0.2189
      2 O          23.5372   72.1771   -4.0858 O.2     1  UNL1       -0.5170
      3 O          22.9088   74.6121   -4.2979 O.3     1  UNL1       -0.4371
      4 O          21.0849   72.7535   -3.9385 O.3     1  UNL1       -0.3112
      5 C          21.0991   73.3544   -2.6426 C.3     1  UNL1        0.1811
      6 C          22.1704   72.1042    0.5537 C.3     1  UNL1        0.2383
      7 C          21.2183   71.0104    0.0084 C.3     1  UNL1        0.1895
      8 O          21.6024   69.7178    0.4784 O.3     1  UNL1       -0.3779
      9 C          21.4309   71.1279   -1.5234 C.3     1  UNL1        0.1713
     10 C          22.0055   72.5449   -1.7140 C.3     1  UNL1        0.1764
     11 O          22.0570   73.1655   -0.4181 O.3     1  UNL1       -0.3308
     12 O          22.3584   70.1397   -1.9771 O.3     1  UNL1       -0.3794
     13 H          20.9728   69.0855    0.1052 H       1  UNL1        0.2106
     14 H          21.9690   69.2782   -1.7763 H       1  UNL1        0.2105
     15 N          21.7329   72.5631    1.8726 N.ar    1  UNL1       -0.2551
     16 C          22.1978   71.9549    2.9777 C.ar    1  UNL1        0.3323
     17 N          21.8156   72.3584    4.2038 N.ar    1  UNL1       -0.2743
     18 C          20.9471   73.3804    4.3428 C.ar    1  UNL1        0.2626
     19 C          20.4452   74.0257    3.1876 C.ar    1  UNL1        0.0795
     20 C          20.8494   73.6041    1.9701 C.ar    1  UNL1        0.0869
     21 O          22.9817   71.0317    2.8687 O.2     1  UNL1       -0.2464
     22 O          20.5971   73.7429    5.4507 O.2     1  UNL1       -0.2670
     23 H          22.1646   71.9113    4.9902 H       1  UNL1        0.1734
     24 O          22.3895   72.8908   -6.2163 O.3     1  UNL1       -0.2703
     25 P          21.1013   73.7265   -6.6976 P.3     1  UNL1        0.2208
     26 O          21.2850   74.1495   -8.1033 O.2     1  UNL1       -0.5170
     27 O          20.9255   75.0272   -5.7651 O.3     1  UNL1       -0.4371
     28 O          19.7877   72.8037   -6.5822 O.3     1  UNL1       -0.2865
     29 C          18.8560   73.2858   -7.5520 C.3     1  UNL1        0.2611
     30 C          17.5015   73.5173   -6.8798 C.3     1  UNL1        0.1582
     31 C          17.0133   72.1988   -6.2691 C.3     1  UNL1        0.1625
     32 C          17.0251   71.1204   -7.3576 C.3     1  UNL1        0.1686
     33 C          18.4167   71.0677   -7.9918 C.3     1  UNL1        0.1760
     34 O          15.6850   72.3653   -5.7697 O.3     1  UNL1       -0.3801
     35 O          16.7145   69.8522   -6.7773 O.3     1  UNL1       -0.3794
     36 O          18.7189   72.3246   -8.5963 O.3     1  UNL1       -0.3263
     37 H          15.4185   71.5144   -5.3954 H       1  UNL1        0.2105
     38 H          16.7336   69.2037   -7.4954 H       1  UNL1        0.2105
     39 C          17.8145   74.1400   -4.5456 C.2     1  UNL1        0.2231
     40 C          17.9600   75.1762   -3.4605 C.3     1  UNL1        0.0946
     41 N          17.6435   74.5235   -5.8254 N.am    1  UNL1       -0.2994
     42 O          17.8506   72.9606   -4.2664 O.2     1  UNL1       -0.2751
     43 H          17.6143   75.4672   -6.0490 H       1  UNL1        0.1496
     44 C          18.4485   69.9711   -9.0583 C.3     1  UNL1        0.1693
     45 O          18.6438   70.5625  -10.3445 O.3     1  UNL1       -0.3794
     46 H          18.6574   69.8393  -10.9859 H       1  UNL1        0.2105
@<TRIPOS>BOND
     1    29    30    1
     2    29    28    1
     3    29    36    1
     4    30    31    1
     5    30    41    1
     6    31    32    1
     7    31    34    1
     8    32    33    1
     9    32    35    1
    10    33    44    1
    11    33    36    1
    12    44    45    1
    13    39    40    1
    14    39    41   am
    15    39    42    2
    16    41    43    1
    17    28    25    1
    18    34    37    1
    19    35    38    1
    20    45    46    1
    21    15    16   ar
    22    15    20   ar
    23    15     6    1
    24    16    17   ar
    25    16    21    2
    26    17    18   ar
    27    17    23    1
    28    18    19   ar
    29    18    22    2
    30    19    20   ar
    31     6     7    1
    32     6    11    1
    33     7     8    1
    34     7     9    1
    35     8    13    1
    36     9    10    1
    37     9    12    1
    38    10    11    1
    39    10     5    1
    40    12    14    1
    41     5     4    1
    42     4     1    1
    43     1     2    2
    44     1     3    1
    45     1    24    1
    46    24    25    1
    47    25    26    2
    48    25    27    1
@<TRIPOS>MOLECULE
UD1
 46 48 0 0 0
SMALL
GASTEIGER

@<TRIPOS>ATOM
      1 P          19.8550   70.7702   -2.9783 P.3     1  UNL1        0.2189
      2 O          19.6094   69.7658   -1.9202 O.2     1  UNL1       -0.5170
      3 O          20.1965   70.0201   -4.3615 O.3     1  UNL1       -0.4371
      4 O          21.0971   71.7030   -2.5541 O.3     1  UNL1       -0.3112
      5 C          20.9021   72.0536   -1.1831 C.3     1  UNL1        0.1811
      6 C          22.9999   72.2262    1.7317 C.3     1  UNL1        0.2383
      7 C          22.5987   70.7332    1.6301 C.3     1  UNL1        0.1895
      8 O          23.6277   69.8908    2.1504 O.3     1  UNL1       -0.3779
      9 C          22.4470   70.5403    0.0988 C.3     1  UNL1        0.1713
     10 C          22.2358   71.9687   -0.4394 C.3     1  UNL1        0.1764
     11 O          22.2222   72.8563    0.6917 O.3     1  UNL1       -0.3308
     12 O          23.6317   69.9611   -0.4523 O.3     1  UNL1       -0.3794
     13 H          23.3169   68.9795    2.0586 H       1  UNL1        0.2106
     14 H          23.7410   69.0971   -0.0334 H       1  UNL1        0.2105
     15 N          22.6459   72.7711    3.0429 N.ar    1  UNL1       -0.2551
     16 C          21.3916   72.6311    3.5060 C.ar    1  UNL1        0.3323
     17 N          21.0388   73.1188    4.7102 N.ar    1  UNL1       -0.2743
     18 C          21.9425   73.7680    5.4716 C.ar    1  UNL1        0.2626
     19 C          23.2650   73.9277    4.9936 C.ar    1  UNL1        0.0795
     20 C          23.5932   73.4240    3.7846 C.ar    1  UNL1        0.0869
     21 O          20.5652   72.0480    2.8310 O.2     1  UNL1       -0.2464
     22 O          21.6235   74.2135    6.5584 O.2     1  UNL1       -0.2670
     23 H          20.1308   73.0046    5.0306 H       1  UNL1        0.1734
     24 O          18.5418   71.6799   -3.1700 O.3     1  UNL1       -0.2703
     25 P          17.4751   70.7909   -3.9831 P.3     1  UNL1        0.2208
     26 O          16.1046   71.1650   -3.5700 O.2     1  UNL1       -0.5170
     27 O          17.7231   69.2317   -3.6672 O.3     1  UNL1       -0.4371
     28 O          17.6497   71.0515   -5.5617 O.3     1  UNL1       -0.2865
     29 C          17.9482   72.4394   -5.7222 C.3     1  UNL1        0.2611
     30 C          16.8690   73.0913   -6.5884 C.3     1  UNL1        0.1582
     31 C          16.8249   72.3865   -7.9489 C.3     1  UNL1        0.1625
     32 C          18.2345   72.3918   -8.5497 C.3     1  UNL1        0.1686
     33 C          19.2103   71.7898   -7.5364 C.3     1  UNL1        0.1760
     34 O          15.9276   73.0796   -8.8183 O.3     1  UNL1       -0.3801
     35 O          18.2465   71.6132   -9.7476 O.3     1  UNL1       -0.3794
     36 O          19.2213   72.5809   -6.3488 O.3     1  UNL1       -0.3263
     37 H          15.9304   72.6033   -9.6600 H       1  UNL1        0.2105
     38 H          19.1506   71.6427  -10.0915 H       1  UNL1        0.2105
     39 C          14.9401   74.0606   -5.4598 C.2     1  UNL1        0.2231
     40 C          13.6012   73.9299   -4.7796 C.3     1  UNL1        0.0946
     41 N          15.5682   72.9649   -5.9280 N.am    1  UNL1       -0.2994
     42 O          15.4524   75.1524   -5.5851 O.2     1  UNL1       -0.2751
     43 H          15.1584   72.0911   -5.8276 H       1  UNL1        0.1496
     44 C          20.6163   71.7606   -8.1395 C.3     1  UNL1        0.1693
     45 O          21.5130   72.4831   -7.2933 O.3     1  UNL1       -0.3794
     46 H          22.3850   72.4405   -7.7085 H       1  UNL1        0.2105
@<TRIPOS>BOND
     1    29    30    1
     2    29    28    1
     3    29    36    1
     4    30    31    1
     5    30    41    1
     6    31    32    1
     7    31    34    1
     8    32    33    1
     9    32    35    1
    10    33    44    1
    11    33    36    1
    12    44    45    1
    13    39    40    1
    14    39    41   am
    15    39    42    2
    16    41    43    1
    17    28    25    1
    18    34    37    1
    19    35    38    1
    20    45    46    1
    21    15    16   ar
    22    15    20   ar
    23    15     6    1
    24    16    17   ar
    25    16    21    2
    26    17    18   ar
    27    17    23    1
    28    18    19   ar
    29    18    22    2
    30    19    20   ar
    31     6     7    1
    32     6    11    1
    33     7     8    1
    34     7     9    1
    35     8    13    1
    36     9    10    1
    37     9    12    1
    38    10    11    1
    39    10     5    1
    40    12    14    1
    41     5     4    1
    42     4     1    1
    43     1     2    2
    44     1     3    1
    45     1    24    1
    46    24    25    1
    47    25    26    2
    48    25    27    1
