@<TRIPOS>MOLECULE
UD2
 46 48 0 0 0
SMALL
GASTEIGER

@<TRIPOS>ATOM
      1 P          21.9328   70.8156   -2.6437 P.3     1  UNL1        0.2189
      2 O          21.3005   69.3412   -2.7763 O.3     1  UNL1       -0.4371
      3 O          23.2991   70.8200   -3.2113 O.2     1  UNL1       -0.5170
      4 O          21.0147   71.8673   -3.4466 O.3     1  UNL1       -0.3112
      5 C          20.0112   72.6640   -2.8144 C.3     1  UNL1        0.1811
      6 C          17.8506   71.4594   -5.4253 C.3     1  UNL1        0.2383
      7 C          18.0193   70.2505   -4.4703 C.3     1  UNL1        0.1895
      8 O          16.8502   69.4289   -4.4762 O.3     1  UNL1       -0.3779
      9 C          18.2007   70.9432   -3.0975 C.3     1  UNL1        0.1713
     10 C          18.6514   72.3728   -3.4538 C.3     1  UNL1        0.1764
     11 O          18.7588   72.4434   -4.8845 O.3     1  UNL1       -0.3308
     12 O          16.9626   70.9715   -2.3855 O.3     1  UNL1       -0.3794
     13 H          16.9074   68.6589   -3.8943 H       1  UNL1        0.2106
     14 H          16.6023   70.0968   -2.1866 H       1  UNL1        0.2105
     15 N          18.2364   71.0960   -6.7907 N.ar    1  UNL1       -0.2551
     16 C          17.2942   70.7084   -7.6686 C.ar    1  UNL1        0.3323
     17 N          17.6202   70.3686   -8.9297 N.ar    1  UNL1       -0.2743
     18 C          18.9059   70.4141   -9.3342 C.ar    1  UNL1        0.2626
     19 C          19.9079   70.8213   -8.4208 C.ar    1  UNL1        0.0795
     20 C          19.5520   71.1605   -7.1639 C.ar    1  UNL1        0.0869
     21 O          16.1309   70.6628   -7.3178 O.2     1  UNL1       -0.2464
     22 O          19.2022   70.1072  -10.4754 O.2     1  UNL1       -0.2670
     23 H          16.9285   70.0902   -9.5496 H       1  UNL1        0.1734
     24 O          21.9953   71.2354   -1.0903 O.3     1  UNL1       -0.2703
     25 P          22.5559   70.5204    0.2392 P.3     1  UNL1        0.2208
     26 O          21.5631   69.3258    0.6647 O.3     1  UNL1       -0.4371
     27 O          23.9030   69.9703   -0.0268 O.2     1  UNL1       -0.5170
     28 O          22.6418   71.5981    1.4324 O.3     1  UNL1       -0.2865
     29 C          21.8083   72.7568    1.4964 C.3     1  UNL1        0.2611
     30 C          22.6326   73.9992    1.1503 C.3     1  UNL1        0.1582
     31 C          23.7454   74.1687    2.1893 C.3     1  UNL1        0.1625
     32 C          23.1183   74.2580    3.5832 C.3     1  UNL1        0.1686
     33 C          22.2751   73.0053    3.8356 C.3     1  UNL1        0.1760
     34 O          24.4748   75.3673    1.9160 O.3     1  UNL1       -0.3801
     35 O          22.2868   75.4174    3.6596 O.3     1  UNL1       -0.3794
     36 O          21.2793   72.8902    2.8172 O.3     1  UNL1       -0.3263
     37 H          25.1971   75.5377    2.5361 H       1  UNL1        0.2105
     38 H          21.8554   75.5370    4.5172 H       1  UNL1        0.2105
     39 C          22.8591   74.6586   -1.1846 C.2     1  UNL1        0.2231
     40 C          23.4679   74.4941   -2.5523 C.3     1  UNL1        0.0946
     41 N          23.2251   73.8383   -0.1799 N.am    1  UNL1       -0.2994
     42 O          22.0384   75.5301   -0.9865 O.2     1  UNL1       -0.2751
     43 H          23.8805   73.1408   -0.3381 H       1  UNL1        0.1496
     44 C          21.5969   73.1142    5.2026 C.3     1  UNL1        0.1693
     45 O          22.5347   73.6052    6.1627 O.3     1  UNL1       -0.3794
     46 H          22.1727   73.6997    7.0543 H       1  UNL1        0.2105
@<TRIPOS>BOND
     1    29    30    1
     2    30    41    1
     3    30    31    1
     4    31    34    1
     5    31    32    1
     6    32    35    1
     7    32    33    1
     8    33    36    1
     9    33    44    1
    10    39    40    1
    11    39    42    2
    12    39    41   am
    13    41    43    1
    14    29    28    1
    15    34    37    1
    16    35    38    1
    17    29    36    1
    18    44    45    1
    19    45    46    1
    20    15     6    1
    21    15    16   ar
    22    16    21    2
    23    16    17   ar
    24    17    23    1
    25    17    18   ar
    26    18    19   ar
    27    19    20   ar
    28    15    20   ar
    29    18    22    2
    30     6     7    1
    31     6    11    1
    32     7     9    1
    33     7     8    1
    34     8    13    1
    35     9    10    1
    36     9    12    1
    37    10     5    1
    38    10    11    1
    39    12    14    1
    40     5     4    1
    41     4     1    1
    42     1     2    1
    43     1    24    1
    44     1     3    2
    45    24    25    1
    46    28    25    1
    47    25    26    1
    48    25    27    2
@<TRIPOS>MOLECULE
UD2
 46 48 0 0 0
SMALL
GASTEIGER

@<TRIPOS>ATOM
      1 P          22.0984   70.7577   -0.2896 P.3     1  UNL1        0.2189
      2 O          21.7742   69.5263    0.6953 O.3     1  UNL1       -0.4371
      3 O          23.2473   70.4093   -1.1543 O.2     1  UNL1       -0.5170
      4 O          20.8104   71.0650   -1.2063 O.3     1  UNL1       -0.3112
      5 C          20.8507   71.0468   -2.6344 C.3     1  UNL1        0.1811
      6 C          18.3267   71.0871   -5.1965 C.3     1  UNL1        0.2383
      7 C          18.1093   69.7428   -4.4564 C.3     1  UNL1        0.1895
      8 O          16.7323   69.3622   -4.4839 O.3     1  UNL1       -0.3779
      9 C          18.5582   70.0885   -3.0154 C.3     1  UNL1        0.1713
     10 C          19.4521   71.3314   -3.1875 C.3     1  UNL1        0.1764
     11 O          19.5304   71.6107   -4.5943 O.3     1  UNL1       -0.3308
     12 O          17.4258   70.3952   -2.2003 O.3     1  UNL1       -0.3794
     13 H          16.5457   68.5270   -4.0342 H       1  UNL1        0.2106
     14 H          16.7987   69.6656   -2.1063 H       1  UNL1        0.2105
     15 N          18.5228   70.8609   -6.6301 N.ar    1  UNL1       -0.2551
     16 C          17.4544   70.7483   -7.4393 C.ar    1  UNL1        0.3323
     17 N          17.6050   70.5400   -8.7607 N.ar    1  UNL1       -0.2743
     18 C          18.8389   70.4423   -9.2961 C.ar    1  UNL1        0.2626
     19 C          19.9724   70.5599   -8.4562 C.ar    1  UNL1        0.0795
     20 C          19.7919   70.7728   -7.1357 C.ar    1  UNL1        0.0869
     21 O          16.3359   70.8345   -6.9703 O.2     1  UNL1       -0.2464
     22 O          18.9766   70.2542  -10.4920 O.2     1  UNL1       -0.2670
     23 H          16.8240   70.4600   -9.3297 H       1  UNL1        0.1734
     24 O          22.4590   72.0624    0.5827 O.3     1  UNL1       -0.2703
     25 P          21.7346   72.8288    1.7996 P.3     1  UNL1        0.2208
     26 O          20.6106   73.8226    1.2142 O.3     1  UNL1       -0.4371
     27 O          21.0985   71.8396    2.6970 O.2     1  UNL1       -0.5170
     28 O          22.8259   73.6784    2.6242 O.3     1  UNL1       -0.2865
     29 C          22.9874   73.5723    4.0398 C.3     1  UNL1        0.2611
     30 C          22.1431   74.6446    4.7325 C.3     1  UNL1        0.1582
     31 C          22.6445   76.0289    4.3096 C.3     1  UNL1        0.1625
     32 C          24.1315   76.1487    4.6542 C.3     1  UNL1        0.1686
     33 C          24.8993   75.0180    3.9642 C.3     1  UNL1        0.1760
     34 O          21.9097   77.0365    5.0083 O.3     1  UNL1       -0.3801
     35 O          24.3035   76.0496    6.0690 O.3     1  UNL1       -0.3794
     36 O          24.3635   73.7593    4.3771 O.3     1  UNL1       -0.3263
     37 H          22.1748   77.9400    4.7880 H       1  UNL1        0.2105
     38 H          25.2238   76.1166    6.3597 H       1  UNL1        0.2105
     39 C          19.8268   74.0900    5.2470 C.2     1  UNL1        0.2231
     40 C          18.3838   73.9324    4.8449 C.3     1  UNL1        0.0946
     41 N          20.7398   74.4913    4.3406 N.am    1  UNL1       -0.2994
     42 O          20.1679   73.8557    6.3875 O.2     1  UNL1       -0.2751
     43 H          20.4676   74.6778    3.4284 H       1  UNL1        0.1496
     44 C          26.3774   75.0952    4.3515 C.3     1  UNL1        0.1693
     45 O          26.7496   76.4616    4.5433 O.3     1  UNL1       -0.3794
     46 H          27.6758   76.5864    4.7912 H       1  UNL1        0.2105
@<TRIPOS>BOND
     1    29    30    1
     2    30    41    1
     3    30    31    1
     4    31    34    1
     5    31    32    1
     6    32    35    1
     7    32    33    1
     8    33    36    1
     9    33    44    1
    10    39    40    1
    11    39    42    2
    12    39    41   am
    13    41    43    1
    14    29    28    1
    15    34    37    1
    16    35    38    1
    17    29    36    1
    18    44    45    1
    19    45    46    1
    20    15     6    1
    21    15    16   ar
    22    16    21    2
    23    16    17   ar
    24    17    23    1
    25    17    18   ar
    26    18    19   ar
    27    19    20   ar
    28    15    20   ar
    29    18    22    2
    30     6     7    1
    31     6    11    1
    32     7     9    1
    33     7     8    1
    34     8    13    1
    35     9    10    1
    36     9    12    1
    37    10     5    1
    38    10    11    1
    39    12    14    1
    40     5     4    1
    41     4     1    1
    42     1     2    1
    43     1    24    1
    44     1     3    2
    45    24    25    1
    46    28    25    1
    47    25    26    1
    48    25    27    2
@<TRIPOS>MOLECULE
UD2
 46 48 0 0 0
SMALL
GASTEIGER

@<TRIPOS>ATOM
      1 P          21.8569   70.3905   -0.5264 P.3     1  UNL1        0.2189
      2 O          22.6499   69.2167    0.2384 O.3     1  UNL1       -0.4371
      3 O          20.5862   69.8581   -1.0655 O.2     1  UNL1       -0.5170
      4 O          21.5431   71.5865    0.5054 O.3     1  UNL1       -0.3112
      5 C          21.9543   71.5606    1.8735 C.3     1  UNL1        0.1811
      6 C          20.4666   74.2807    3.6968 C.3     1  UNL1        0.2383
      7 C          21.3367   73.5396    4.7436 C.3     1  UNL1        0.1895
      8 O          21.8318   74.4473    5.7299 O.3     1  UNL1       -0.3779
      9 C          22.4915   72.9859    3.8733 C.3     1  UNL1        0.1713
     10 C          21.9165   72.9805    2.4440 C.3     1  UNL1        0.1764
     11 O          20.5573   73.4375    2.5279 O.3     1  UNL1       -0.3308
     12 O          23.6308   73.8442    3.9514 O.3     1  UNL1       -0.3794
     13 H          22.3815   74.0309    6.4074 H       1  UNL1        0.2106
     14 H          23.9983   73.9314    4.8412 H       1  UNL1        0.2105
     15 N          19.0793   74.3791    4.1560 N.ar    1  UNL1       -0.2551
     16 C          18.1858   75.0770    3.4325 C.ar    1  UNL1        0.3323
     17 N          16.9043   75.1843    3.8307 N.ar    1  UNL1       -0.2743
     18 C          16.4949   74.5875    4.9686 C.ar    1  UNL1        0.2626
     19 C          17.4246   73.8488    5.7394 C.ar    1  UNL1        0.0795
     20 C          18.7020   73.7543    5.3142 C.ar    1  UNL1        0.0869
     21 O          18.5408   75.6202    2.4043 O.2     1  UNL1       -0.2464
     22 O          15.3353   74.6835    5.3299 O.2     1  UNL1       -0.2670
     23 H          16.2734   75.6923    3.2978 H       1  UNL1        0.1734
     24 O          22.7611   70.9496   -1.7361 O.3     1  UNL1       -0.2703
     25 P          22.6450   72.2137   -2.7267 P.3     1  UNL1        0.2208
     26 O          22.8139   73.5744   -1.8818 O.3     1  UNL1       -0.4371
     27 O          23.7076   72.1359   -3.7529 O.2     1  UNL1       -0.5170
     28 O          21.2035   72.2025   -3.4442 O.3     1  UNL1       -0.2865
     29 C          20.9766   71.6140   -4.7262 C.3     1  UNL1        0.2611
     30 C          20.2772   72.6260   -5.6368 C.3     1  UNL1        0.1582
     31 C          18.9118   72.9794   -5.0390 C.3     1  UNL1        0.1625
     32 C          18.0958   71.6958   -4.8633 C.3     1  UNL1        0.1686
     33 C          18.8796   70.7193   -3.9822 C.3     1  UNL1        0.1760
     34 O          18.2206   73.8678   -5.9201 O.3     1  UNL1       -0.3801
     35 O          17.8584   71.1020   -6.1409 O.3     1  UNL1       -0.3794
     36 O          20.1510   70.4568   -4.5792 O.3     1  UNL1       -0.3263
     37 H          17.3467   74.1344   -5.6032 H       1  UNL1        0.2105
     38 H          17.3460   70.2821   -6.1052 H       1  UNL1        0.2105
     39 C          21.7547   74.1092   -6.8837 C.2     1  UNL1        0.2231
     40 C          22.5950   75.3546   -6.9914 C.3     1  UNL1        0.0946
     41 N          21.0946   73.8375   -5.7407 N.am    1  UNL1       -0.2994
     42 O          21.6718   73.3498   -7.8263 O.2     1  UNL1       -0.2751
     43 H          21.1614   74.4438   -4.9864 H       1  UNL1        0.1496
     44 C          18.0976   69.4110   -3.8506 C.3     1  UNL1        0.1693
     45 O          16.7174   69.6497   -4.1340 O.3     1  UNL1       -0.3794
     46 H          16.1601   68.8621   -4.0695 H       1  UNL1        0.2105
@<TRIPOS>BOND
     1    29    30    1
     2    30    41    1
     3    30    31    1
     4    31    34    1
     5    31    32    1
     6    32    35    1
     7    32    33    1
     8    33    36    1
     9    33    44    1
    10    39    40    1
    11    39    42    2
    12    39    41   am
    13    41    43    1
    14    29    28    1
    15    34    37    1
    16    35    38    1
    17    29    36    1
    18    44    45    1
    19    45    46    1
    20    15     6    1
    21    15    16   ar
    22    16    21    2
    23    16    17   ar
    24    17    23    1
    25    17    18   ar
    26    18    19   ar
    27    19    20   ar
    28    15    20   ar
    29    18    22    2
    30     6     7    1
    31     6    11    1
    32     7     9    1
    33     7     8    1
    34     8    13    1
    35     9    10    1
    36     9    12    1
    37    10     5    1
    38    10    11    1
    39    12    14    1
    40     5     4    1
    41     4     1    1
    42     1     2    1
    43     1    24    1
    44     1     3    2
    45    24    25    1
    46    28    25    1
    47    25    26    1
    48    25    27    2
@<TRIPOS>MOLECULE
UD2
 46 48 0 0 0
SMALL
GASTEIGER

@<TRIPOS>ATOM
      1 P          21.9497   70.5414   -0.2134 P.3     1  UNL1        0.2189
      2 O          22.5558   69.1527    0.3304 O.3     1  UNL1       -0.4371
      3 O          23.0408   71.3735   -0.7666 O.2     1  UNL1       -0.5170
      4 O          20.8674   70.2391   -1.3671 O.3     1  UNL1       -0.3112
      5 C          20.9735   70.7681   -2.6901 C.3     1  UNL1        0.1811
      6 C          18.4069   71.0097   -5.1982 C.3     1  UNL1        0.2383
      7 C          18.1405   69.6533   -4.4974 C.3     1  UNL1        0.1895
      8 O          16.7468   69.3380   -4.5094 O.3     1  UNL1       -0.3779
      9 C          18.6318   69.9301   -3.0554 C.3     1  UNL1        0.1713
     10 C          19.5798   71.1353   -3.2055 C.3     1  UNL1        0.1764
     11 O          19.6449   71.4568   -4.6040 O.3     1  UNL1       -0.3308
     12 O          17.5305   70.2620   -2.2082 O.3     1  UNL1       -0.3794
     13 H          16.5296   68.4980   -4.0829 H       1  UNL1        0.2106
     14 H          16.8716   69.5596   -2.1250 H       1  UNL1        0.2105
     15 N          18.5655   70.8219   -6.6421 N.ar    1  UNL1       -0.2551
     16 C          17.4769   70.7576   -7.4292 C.ar    1  UNL1        0.3323
     17 N          17.5930   70.5854   -8.7593 N.ar    1  UNL1       -0.2743
     18 C          18.8119   70.4759   -9.3257 C.ar    1  UNL1        0.2626
     19 C          19.9664   70.5429   -8.5092 C.ar    1  UNL1        0.0795
     20 C          19.8206   70.7204   -7.1792 C.ar    1  UNL1        0.0869
     21 O          16.3716   70.8549   -6.9322 O.2     1  UNL1       -0.2464
     22 O          18.9183   70.3204  -10.5295 O.2     1  UNL1       -0.2670
     23 H          16.7977   70.5399   -9.3122 H       1  UNL1        0.1734
     24 O          21.2366   71.3270    0.9980 O.3     1  UNL1       -0.2703
     25 P          21.7767   72.2361    2.2125 P.3     1  UNL1        0.2208
     26 O          20.5296   72.7549    3.0896 O.3     1  UNL1       -0.4371
     27 O          22.6795   71.4333    3.0662 O.2     1  UNL1       -0.5170
     28 O          22.5799   73.4999    1.6207 O.3     1  UNL1       -0.2865
     29 C          22.4522   74.8208    2.1501 C.3     1  UNL1        0.2611
     30 C          23.1541   75.8140    1.2209 C.3     1  UNL1        0.1582
     31 C          24.6476   75.4784    1.1635 C.3     1  UNL1        0.1625
     32 C          25.2211   75.5064    2.5829 C.3     1  UNL1        0.1686
     33 C          24.4393   74.5247    3.4597 C.3     1  UNL1        0.1760
     34 O          25.3233   76.4454    0.3562 O.3     1  UNL1       -0.3801
     35 O          25.1034   76.8253    3.1197 O.3     1  UNL1       -0.3794
     36 O          23.0539   74.8746    3.4452 O.3     1  UNL1       -0.3263
     37 H          26.2749   76.2936    0.2752 H       1  UNL1        0.2105
     38 H          25.4473   76.9166    4.0193 H       1  UNL1        0.2105
     39 C          21.8137   76.7185   -0.6019 C.2     1  UNL1        0.2231
     40 C          21.2218   76.6203   -1.9835 C.3     1  UNL1        0.0946
     41 N          22.5785   75.7177   -0.1229 N.am    1  UNL1       -0.2994
     42 O          21.6019   77.6991    0.0806 O.2     1  UNL1       -0.2751
     43 H          22.7472   74.9331   -0.6679 H       1  UNL1        0.1496
     44 C          24.9673   74.5904    4.8941 C.3     1  UNL1        0.1693
     45 O          26.3353   75.0036    4.8804 O.3     1  UNL1       -0.3794
     46 H          26.7363   75.0672    5.7580 H       1  UNL1        0.2105
@<TRIPOS>BOND
     1    29    30    1
     2    30    41    1
     3    30    31    1
     4    31    34    1
     5    31    32    1
     6    32    35    1
     7    32    33    1
     8    33    36    1
     9    33    44    1
    10    39    40    1
    11    39    42    2
    12    39    41   am
    13    41    43    1
    14    29    28    1
    15    34    37    1
    16    35    38    1
    17    29    36    1
    18    44    45    1
    19    45    46    1
    20    15     6    1
    21    15    16   ar
    22    16    21    2
    23    16    17   ar
    24    17    23    1
    25    17    18   ar
    26    18    19   ar
    27    19    20   ar
    28    15    20   ar
    29    18    22    2
    30     6     7    1
    31     6    11    1
    32     7     9    1
    33     7     8    1
    34     8    13    1
    35     9    10    1
    36     9    12    1
    37    10     5    1
    38    10    11    1
    39    12    14    1
    40     5     4    1
    41     4     1    1
    42     1     2    1
    43     1    24    1
    44     1     3    2
    45    24    25    1
    46    28    25    1
    47    25    26    1
    48    25    27    2
@<TRIPOS>MOLECULE
UD2
 46 48 0 0 0
SMALL
GASTEIGER

@<TRIPOS>ATOM
      1 P          21.9498   74.2968   -6.3197 P.3     1  UNL1        0.2189
      2 O          23.2923   75.1813   -6.4011 O.3     1  UNL1       -0.4371
      3 O          20.7771   75.1512   -6.6086 O.2     1  UNL1       -0.5170
      4 O          22.0257   73.1058   -7.4012 O.3     1  UNL1       -0.3112
      5 C          21.5171   73.2298   -8.7306 C.3     1  UNL1        0.1811
      6 C          18.8178   71.1589   -7.5638 C.3     1  UNL1        0.2383
      7 C          18.1658   72.5415   -7.8196 C.3     1  UNL1        0.1895
      8 O          16.7995   72.3963   -8.2120 O.3     1  UNL1       -0.3779
      9 C          19.0202   73.0930   -8.9872 C.3     1  UNL1        0.1713
     10 C          20.3284   72.2827   -8.9120 C.3     1  UNL1        0.1764
     11 O          20.2243   71.4064   -7.7785 O.3     1  UNL1       -0.3308
     12 O          18.3632   72.8683  -10.2357 O.3     1  UNL1       -0.3794
     13 H          16.3480   73.2339   -8.3829 H       1  UNL1        0.2106
     14 H          17.5058   73.3076  -10.3145 H       1  UNL1        0.2105
     15 N          18.5749   70.7207   -6.1876 N.ar    1  UNL1       -0.2551
     16 C          17.4252   70.0938   -5.8809 C.ar    1  UNL1        0.3323
     17 N          17.1753   69.6805   -4.6243 N.ar    1  UNL1       -0.2743
     18 C          18.0821   69.8891   -3.6482 C.ar    1  UNL1        0.2626
     19 C          19.2970   70.5469   -3.9572 C.ar    1  UNL1        0.0795
     20 C          19.5229   70.9468   -5.2262 C.ar    1  UNL1        0.0869
     21 O          16.5986   69.8988   -6.7510 O.2     1  UNL1       -0.2464
     22 O          17.8573   69.5151   -2.5106 O.2     1  UNL1       -0.2670
     23 H          16.3407   69.2311   -4.4202 H       1  UNL1        0.1734
     24 O          21.8077   73.6712   -4.8426 O.3     1  UNL1       -0.2703
     25 P          22.8422   72.9932   -3.8115 P.3     1  UNL1        0.2208
     26 O          22.8276   71.3951   -4.0104 O.3     1  UNL1       -0.4371
     27 O          24.2046   73.5093   -4.0682 O.2     1  UNL1       -0.5170
     28 O          22.4078   73.3507   -2.3028 O.3     1  UNL1       -0.2865
     29 C          21.2562   72.7892   -1.6705 C.3     1  UNL1        0.2611
     30 C          20.7765   73.7248   -0.5582 C.3     1  UNL1        0.1582
     31 C          21.8751   73.8488    0.5020 C.3     1  UNL1        0.1625
     32 C          22.2228   72.4532    1.0271 C.3     1  UNL1        0.1686
     33 C          22.6469   71.5664   -0.1466 C.3     1  UNL1        0.1760
     34 O          21.4078   74.6622    1.5805 O.3     1  UNL1       -0.3801
     35 O          21.0786   71.8848    1.6668 O.3     1  UNL1       -0.3794
     36 O          21.5929   71.5183   -1.1104 O.3     1  UNL1       -0.3263
     37 H          22.0542   74.7843    2.2893 H       1  UNL1        0.2105
     38 H          21.2268   70.9979    2.0237 H       1  UNL1        0.2105
     39 C          19.2321   75.3587   -1.4978 C.2     1  UNL1        0.2231
     40 C          18.9343   76.7172   -2.0763 C.3     1  UNL1        0.0946
     41 N          20.4877   75.0463   -1.1211 N.am    1  UNL1       -0.2994
     42 O          18.3413   74.5448   -1.3708 O.2     1  UNL1       -0.2751
     43 H          21.2004   75.6964   -1.2233 H       1  UNL1        0.1496
     44 C          22.9387   70.1532    0.3616 C.3     1  UNL1        0.1693
     45 O          21.7082   69.4538    0.5591 O.3     1  UNL1       -0.3794
     46 H          21.8170   68.5487    0.8816 H       1  UNL1        0.2105
@<TRIPOS>BOND
     1    29    30    1
     2    30    41    1
     3    30    31    1
     4    31    34    1
     5    31    32    1
     6    32    35    1
     7    32    33    1
     8    33    36    1
     9    33    44    1
    10    39    40    1
    11    39    42    2
    12    39    41   am
    13    41    43    1
    14    29    28    1
    15    34    37    1
    16    35    38    1
    17    29    36    1
    18    44    45    1
    19    45    46    1
    20    15     6    1
    21    15    16   ar
    22    16    21    2
    23    16    17   ar
    24    17    23    1
    25    17    18   ar
    26    18    19   ar
    27    19    20   ar
    28    15    20   ar
    29    18    22    2
    30     6     7    1
    31     6    11    1
    32     7     9    1
    33     7     8    1
    34     8    13    1
    35     9    10    1
    36     9    12    1
    37    10     5    1
    38    10    11    1
    39    12    14    1
    40     5     4    1
    41     4     1    1
    42     1     2    1
    43     1    24    1
    44     1     3    2
    45    24    25    1
    46    28    25    1
    47    25    26    1
    48    25    27    2
@<TRIPOS>MOLECULE
UD2
 46 48 0 0 0
SMALL
GASTEIGER

@<TRIPOS>ATOM
      1 P          22.9063   72.1898   -3.2064 P.3     1  UNL1        0.2189
      2 O          23.4896   70.6905   -3.1502 O.3     1  UNL1       -0.4371
      3 O          23.6109   72.9549   -4.2585 O.2     1  UNL1       -0.5170
      4 O          21.3318   72.1406   -3.5419 O.3     1  UNL1       -0.3112
      5 C          20.3310   71.9280   -2.5446 C.3     1  UNL1        0.1811
      6 C          18.0194   71.3652   -5.2420 C.3     1  UNL1        0.2383
      7 C          17.9632   70.0635   -4.4026 C.3     1  UNL1        0.1895
      8 O          16.6680   69.4644   -4.4767 O.3     1  UNL1       -0.3779
      9 C          18.2493   70.5856   -2.9733 C.3     1  UNL1        0.1713
     10 C          18.9478   71.9399   -3.1999 C.3     1  UNL1        0.1764
     11 O          19.0808   72.1206   -4.6188 O.3     1  UNL1       -0.3308
     12 O          17.0281   70.7662   -2.2543 O.3     1  UNL1       -0.3794
     13 H          16.5830   68.6466   -3.9681 H       1  UNL1        0.2106
     14 H          16.5178   69.9541   -2.1342 H       1  UNL1        0.2105
     15 N          18.3494   71.0654   -6.6371 N.ar    1  UNL1       -0.2551
     16 C          17.3619   70.8405   -7.5220 C.ar    1  UNL1        0.3323
     17 N          17.6361   70.5626   -8.8103 N.ar    1  UNL1       -0.2743
     18 C          18.9147   70.5072   -9.2354 C.ar    1  UNL1        0.2626
     19 C          19.9641   70.7429   -8.3150 C.ar    1  UNL1        0.0795
     20 C          19.6600   71.0235   -7.0303 C.ar    1  UNL1        0.0869
     21 O          16.2044   70.8873   -7.1527 O.2     1  UNL1       -0.2464
     22 O          19.1642   70.2562  -10.4013 O.2     1  UNL1       -0.2670
     23 H          16.9121   70.4017   -9.4349 H       1  UNL1        0.1734
     24 O          23.1285   72.9062   -1.7814 O.3     1  UNL1       -0.2703
     25 P          23.0060   74.4258   -1.2630 P.3     1  UNL1        0.2208
     26 O          24.4248   75.1677   -1.4369 O.3     1  UNL1       -0.4371
     27 O          21.9782   75.1363   -2.0552 O.2     1  UNL1       -0.5170
     28 O          22.5844   74.4303    0.2910 O.3     1  UNL1       -0.2865
     29 C          23.3379   73.7613    1.3039 C.3     1  UNL1        0.2611
     30 C          22.4901   72.6450    1.9184 C.3     1  UNL1        0.1582
     31 C          21.2570   73.2610    2.5865 C.3     1  UNL1        0.1625
     32 C          21.7128   74.2849    3.6297 C.3     1  UNL1        0.1686
     33 C          22.5908   75.3383    2.9490 C.3     1  UNL1        0.1760
     34 O          20.4973   72.2331    3.2264 O.3     1  UNL1       -0.3801
     35 O          22.4629   73.6247    4.6509 O.3     1  UNL1       -0.3794
     36 O          23.7025   74.6962    2.3214 O.3     1  UNL1       -0.3263
     37 H          19.6998   72.5525    3.6704 H       1  UNL1        0.2105
     38 H          22.7850   74.2146    5.3469 H       1  UNL1        0.2105
     39 C          22.4994   70.4421    0.8769 C.2     1  UNL1        0.2231
     40 C          22.0629   69.4882   -0.2039 C.3     1  UNL1        0.0946
     41 N          22.0652   71.7178    0.8666 N.am    1  UNL1       -0.2994
     42 O          23.2425   70.0622    1.7577 O.2     1  UNL1       -0.2751
     43 H          21.4719   72.0222    0.1621 H       1  UNL1        0.1496
     44 C          23.0993   76.3316    3.9956 C.3     1  UNL1        0.1693
     45 O          22.0741   76.5738    4.9613 O.3     1  UNL1       -0.3794
     46 H          22.3273   77.1958    5.6570 H       1  UNL1        0.2105
@<TRIPOS>BOND
     1    29    30    1
     2    30    41    1
     3    30    31    1
     4    31    34    1
     5    31    32    1
     6    32    35    1
     7    32    33    1
     8    33    36    1
     9    33    44    1
    10    39    40    1
    11    39    42    2
    12    39    41   am
    13    41    43    1
    14    29    28    1
    15    34    37    1
    16    35    38    1
    17    29    36    1
    18    44    45    1
    19    45    46    1
    20    15     6    1
    21    15    16   ar
    22    16    21    2
    23    16    17   ar
    24    17    23    1
    25    17    18   ar
    26    18    19   ar
    27    19    20   ar
    28    15    20   ar
    29    18    22    2
    30     6     7    1
    31     6    11    1
    32     7     9    1
    33     7     8    1
    34     8    13    1
    35     9    10    1
    36     9    12    1
    37    10     5    1
    38    10    11    1
    39    12    14    1
    40     5     4    1
    41     4     1    1
    42     1     2    1
    43     1    24    1
    44     1     3    2
    45    24    25    1
    46    28    25    1
    47    25    26    1
    48    25    27    2
@<TRIPOS>MOLECULE
UD2
 46 48 0 0 0
SMALL
GASTEIGER

@<TRIPOS>ATOM
      1 P          22.0402   70.6909   -0.3827 P.3     1  UNL1        0.2189
      2 O          21.6211   69.4152    0.5053 O.3     1  UNL1       -0.4371
      3 O          23.1652   70.3260   -1.2715 O.2     1  UNL1       -0.5170
      4 O          20.7832   71.1610   -1.2731 O.3     1  UNL1       -0.3112
      5 C          20.8271   71.2399   -2.6990 C.3     1  UNL1        0.1811
      6 C          18.2892   71.0916   -5.2433 C.3     1  UNL1        0.2383
      7 C          18.1719   69.7386   -4.4966 C.3     1  UNL1        0.1895
      8 O          16.8249   69.2621   -4.5129 O.3     1  UNL1       -0.3779
      9 C          18.6051   70.1212   -3.0601 C.3     1  UNL1        0.1713
     10 C          19.4083   71.4231   -3.2433 C.3     1  UNL1        0.1764
     11 O          19.4572   71.7011   -4.6517 O.3     1  UNL1       -0.3308
     12 O          17.4595   70.3512   -2.2382 O.3     1  UNL1       -0.3794
     13 H          16.7006   68.4178   -4.0586 H       1  UNL1        0.2106
     14 H          16.8859   69.5797   -2.1369 H       1  UNL1        0.2105
     15 N          18.4910   70.8734   -6.6774 N.ar    1  UNL1       -0.2551
     16 C          17.4259   70.7598   -7.4906 C.ar    1  UNL1        0.3323
     17 N          17.5817   70.5587   -8.8125 N.ar    1  UNL1       -0.2743
     18 C          18.8178   70.4697   -9.3444 C.ar    1  UNL1        0.2626
     19 C          19.9480   70.5885   -8.5002 C.ar    1  UNL1        0.0795
     20 C          19.7622   70.7939   -7.1793 C.ar    1  UNL1        0.0869
     21 O          16.3055   70.8383   -7.0249 O.2     1  UNL1       -0.2464
     22 O          18.9602   70.2881  -10.5408 O.2     1  UNL1       -0.2670
     23 H          16.8029   70.4778   -9.3844 H       1  UNL1        0.1734
     24 O          22.4905   71.8953    0.5868 O.3     1  UNL1       -0.2703
     25 P          21.7609   72.7134    1.7664 P.3     1  UNL1        0.2208
     26 O          20.7310   73.7733    1.1262 O.3     1  UNL1       -0.4371
     27 O          21.0219   71.7720    2.6359 O.2     1  UNL1       -0.5170
     28 O          22.8647   73.4966    2.6385 O.3     1  UNL1       -0.2865
     29 C          22.7090   74.8550    3.0529 C.3     1  UNL1        0.2611
     30 C          24.0589   75.4050    3.5199 C.3     1  UNL1        0.1582
     31 C          24.5361   74.6005    4.7329 C.3     1  UNL1        0.1625
     32 C          23.4701   74.6703    5.8298 C.3     1  UNL1        0.1686
     33 C          22.1426   74.1484    5.2735 C.3     1  UNL1        0.1760
     34 O          25.7604   75.1540    5.2209 O.3     1  UNL1       -0.3801
     35 O          23.3106   76.0248    6.2555 O.3     1  UNL1       -0.3794
     36 O          21.7713   74.9197    4.1293 O.3     1  UNL1       -0.3263
     37 H          26.1213   74.6921    5.9901 H       1  UNL1        0.2105
     38 H          22.6484   76.1439    6.9506 H       1  UNL1        0.2105
     39 C          25.9170   76.2798    2.2085 C.2     1  UNL1        0.2231
     40 C          26.9237   76.1565    1.0950 C.3     1  UNL1        0.0946
     41 N          25.0377   75.2843    2.4365 N.am    1  UNL1       -0.2994
     42 O          25.8971   77.2760    2.9009 O.2     1  UNL1       -0.2751
     43 H          25.0526   74.4882    1.8825 H       1  UNL1        0.1496
     44 C          21.0576   74.2704    6.3452 C.3     1  UNL1        0.1693
     45 O          19.9067   73.5231    5.9462 O.3     1  UNL1       -0.3794
     46 H          19.1770   73.5554    6.5798 H       1  UNL1        0.2105
@<TRIPOS>BOND
     1    29    30    1
     2    30    41    1
     3    30    31    1
     4    31    34    1
     5    31    32    1
     6    32    35    1
     7    32    33    1
     8    33    36    1
     9    33    44    1
    10    39    40    1
    11    39    42    2
    12    39    41   am
    13    41    43    1
    14    29    28    1
    15    34    37    1
    16    35    38    1
    17    29    36    1
    18    44    45    1
    19    45    46    1
    20    15     6    1
    21    15    16   ar
    22    16    21    2
    23    16    17   ar
    24    17    23    1
    25    17    18   ar
    26    18    19   ar
    27    19    20   ar
    28    15    20   ar
    29    18    22    2
    30     6     7    1
    31     6    11    1
    32     7     9    1
    33     7     8    1
    34     8    13    1
    35     9    10    1
    36     9    12    1
    37    10     5    1
    38    10    11    1
    39    12    14    1
    40     5     4    1
    41     4     1    1
    42     1     2    1
    43     1    24    1
    44     1     3    2
    45    24    25    1
    46    28    25    1
    47    25    26    1
    48    25    27    2
@<TRIPOS>MOLECULE
UD2
 46 48 0 0 0
SMALL
GASTEIGER

@<TRIPOS>ATOM
      1 P          21.7608   70.5255   -0.2654 P.3     1  UNL1        0.2189
      2 O          22.0041   69.0529    0.3376 O.3     1  UNL1       -0.4371
      3 O          23.0386   71.0663   -0.7789 O.2     1  UNL1       -0.5170
      4 O          20.6913   70.4434   -1.4667 O.3     1  UNL1       -0.3112
      5 C          20.7634   71.2708   -2.6293 C.3     1  UNL1        0.1811
      6 C          18.2617   71.1432   -5.2104 C.3     1  UNL1        0.2383
      7 C          18.1066   69.8013   -4.4506 C.3     1  UNL1        0.1895
      8 O          16.7509   69.3510   -4.4823 O.3     1  UNL1       -0.3779
      9 C          18.5255   70.1917   -3.0120 C.3     1  UNL1        0.1713
     10 C          19.3568   71.4755   -3.1972 C.3     1  UNL1        0.1764
     11 O          19.4324   71.7365   -4.6078 O.3     1  UNL1       -0.3308
     12 O          17.3724   70.4532   -2.2103 O.3     1  UNL1       -0.3794
     13 H          16.6031   68.5145   -4.0207 H       1  UNL1        0.2106
     14 H          16.7822   69.6943   -2.1094 H       1  UNL1        0.2105
     15 N          18.4809   70.9049   -6.6388 N.ar    1  UNL1       -0.2551
     16 C          17.4258   70.7940   -7.4654 C.ar    1  UNL1        0.3323
     17 N          17.5977   70.5748   -8.7825 N.ar    1  UNL1       -0.2743
     18 C          18.8398   70.4643   -9.2957 C.ar    1  UNL1        0.2626
     19 C          19.9595   70.5800   -8.4372 C.ar    1  UNL1        0.0795
     20 C          19.7578   70.8039   -7.1217 C.ar    1  UNL1        0.0869
     21 O          16.3001   70.8918   -7.0165 O.2     1  UNL1       -0.2464
     22 O          18.9967   70.2663  -10.4877 O.2     1  UNL1       -0.2670
     23 H          16.8260   70.4962   -9.3643 H       1  UNL1        0.1734
     24 O          21.1945   71.4925    0.8911 O.3     1  UNL1       -0.2703
     25 P          21.8862   72.4114    2.0181 P.3     1  UNL1        0.2208
     26 O          22.9201   71.5221    2.8747 O.3     1  UNL1       -0.4371
     27 O          22.6135   73.5244    1.3695 O.2     1  UNL1       -0.5170
     28 O          20.7530   73.0072    2.9946 O.3     1  UNL1       -0.2865
     29 C          20.7082   74.3797    3.3889 C.3     1  UNL1        0.2611
     30 C          21.5450   74.5753    4.6554 C.3     1  UNL1        0.1582
     31 C          20.9385   73.7452    5.7910 C.3     1  UNL1        0.1625
     32 C          19.4785   74.1616    5.9898 C.3     1  UNL1        0.1686
     33 C          18.7212   73.9817    4.6714 C.3     1  UNL1        0.1760
     34 O          21.6702   73.9791    6.9964 O.3     1  UNL1       -0.3801
     35 O          19.4229   75.5319    6.3901 O.3     1  UNL1       -0.3794
     36 O          19.3545   74.7557    3.6507 O.3     1  UNL1       -0.3263
     37 H          21.3405   73.4835    7.7586 H       1  UNL1        0.2105
     38 H          18.5258   75.8643    6.5337 H       1  UNL1        0.2105
     39 C          23.9543   74.8340    4.9127 C.2     1  UNL1        0.2231
     40 C          25.3679   74.3809    4.6576 C.3     1  UNL1        0.0946
     41 N          22.9197   74.1341    4.4066 N.am    1  UNL1       -0.2994
     42 O          23.7462   75.8296    5.5742 O.2     1  UNL1       -0.2751
     43 H          23.0856   73.3386    3.8769 H       1  UNL1        0.1496
     44 C          17.2758   74.4519    4.8456 C.3     1  UNL1        0.1693
     45 O          16.8861   74.2999    6.2121 O.3     1  UNL1       -0.3794
     46 H          15.9788   74.5791    6.3963 H       1  UNL1        0.2105
@<TRIPOS>BOND
     1    29    30    1
     2    30    41    1
     3    30    31    1
     4    31    34    1
     5    31    32    1
     6    32    35    1
     7    32    33    1
     8    33    36    1
     9    33    44    1
    10    39    40    1
    11    39    42    2
    12    39    41   am
    13    41    43    1
    14    29    28    1
    15    34    37    1
    16    35    38    1
    17    29    36    1
    18    44    45    1
    19    45    46    1
    20    15     6    1
    21    15    16   ar
    22    16    21    2
    23    16    17   ar
    24    17    23    1
    25    17    18   ar
    26    18    19   ar
    27    19    20   ar
    28    15    20   ar
    29    18    22    2
    30     6     7    1
    31     6    11    1
    32     7     9    1
    33     7     8    1
    34     8    13    1
    35     9    10    1
    36     9    12    1
    37    10     5    1
    38    10    11    1
    39    12    14    1
    40     5     4    1
    41     4     1    1
    42     1     2    1
    43     1    24    1
    44     1     3    2
    45    24    25    1
    46    28    25    1
    47    25    26    1
    48    25    27    2
@<TRIPOS>MOLECULE
UD2
 46 48 0 0 0
SMALL
GASTEIGER

@<TRIPOS>ATOM
      1 P          20.8711   70.5868   -2.5344 P.3     1  UNL1        0.2189
      2 O          19.8124   69.5726   -1.8695 O.3     1  UNL1       -0.4371
      3 O          21.1462   70.1705   -3.9272 O.2     1  UNL1       -0.5170
      4 O          20.2614   72.0774   -2.5302 O.3     1  UNL1       -0.3112
      5 C          18.9096   72.3652   -2.8926 C.3     1  UNL1        0.1811
      6 C          18.7518   73.4173   -6.3284 C.3     1  UNL1        0.2383
      7 C          17.2804   73.4505   -5.8427 C.3     1  UNL1        0.1895
      8 O          16.5405   74.4641   -6.5260 O.3     1  UNL1       -0.3779
      9 C          17.4408   73.8000   -4.3429 C.3     1  UNL1        0.1713
     10 C          18.8934   73.4036   -4.0171 C.3     1  UNL1        0.1764
     11 O          19.4612   72.8405   -5.2105 O.3     1  UNL1       -0.3308
     12 O          17.2446   75.1993   -4.1330 O.3     1  UNL1       -0.3794
     13 H          15.6138   74.5237   -6.2571 H       1  UNL1        0.2106
     14 H          16.3644   75.5150   -4.3779 H       1  UNL1        0.2105
     15 N          18.8840   72.5705   -7.5161 N.ar    1  UNL1       -0.2551
     16 C          18.7451   73.1120   -8.7394 C.ar    1  UNL1        0.3323
     17 N          18.8612   72.3575   -9.8482 N.ar    1  UNL1       -0.2743
     18 C          19.1224   71.0383   -9.7473 C.ar    1  UNL1        0.2626
     19 C          19.2720   70.4554   -8.4659 C.ar    1  UNL1        0.0795
     20 C          19.1546   71.2364   -7.3715 C.ar    1  UNL1        0.0869
     21 O          18.5097   74.3001   -8.8454 O.2     1  UNL1       -0.2464
     22 O          19.2282   70.3545  -10.7501 O.2     1  UNL1       -0.2670
     23 H          18.7570   72.7637  -10.7224 H       1  UNL1        0.1734
     24 O          22.2403   70.5654   -1.6870 O.3     1  UNL1       -0.2703
     25 P          22.5854   70.3821   -0.1249 P.3     1  UNL1        0.2208
     26 O          21.4653   69.4542    0.5664 O.3     1  UNL1       -0.4371
     27 O          23.9114   69.7414    0.0158 O.2     1  UNL1       -0.5170
     28 O          22.6065   71.8234    0.5926 O.3     1  UNL1       -0.2865
     29 C          21.4652   72.6809    0.6505 C.3     1  UNL1        0.2611
     30 C          21.8346   74.0614    0.1024 C.3     1  UNL1        0.1582
     31 C          22.9242   74.6771    0.9856 C.3     1  UNL1        0.1625
     32 C          22.4196   74.7420    2.4297 C.3     1  UNL1        0.1686
     33 C          22.0276   73.3349    2.8883 C.3     1  UNL1        0.1760
     34 O          23.2233   75.9966    0.5244 O.3     1  UNL1       -0.3801
     35 O          21.2810   75.6022    2.4996 O.3     1  UNL1       -0.3794
     36 O          21.0337   72.8080    2.0070 O.3     1  UNL1       -0.3263
     37 H          23.9074   76.4469    1.0387 H       1  UNL1        0.2105
     38 H          20.9073   75.6899    3.3877 H       1  UNL1        0.2105
     39 C          21.9718   74.8205   -2.2090 C.2     1  UNL1        0.2231
     40 C          22.4848   74.6822   -3.6184 C.3     1  UNL1        0.0946
     41 N          22.3339   73.9260   -1.2684 N.am    1  UNL1       -0.2994
     42 O          21.2319   75.7377   -1.9199 O.2     1  UNL1       -0.2751
     43 H          22.9245   73.1920   -1.4993 H       1  UNL1        0.1496
     44 C          21.4662   73.3999    4.3099 C.3     1  UNL1        0.1693
     45 O          22.0209   72.3394    5.0909 O.3     1  UNL1       -0.3794
     46 H          21.7086   72.3190    6.0058 H       1  UNL1        0.2105
@<TRIPOS>BOND
     1    29    30    1
     2    30    41    1
     3    30    31    1
     4    31    34    1
     5    31    32    1
     6    32    35    1
     7    32    33    1
     8    33    36    1
     9    33    44    1
    10    39    40    1
    11    39    42    2
    12    39    41   am
    13    41    43    1
    14    29    28    1
    15    34    37    1
    16    35    38    1
    17    29    36    1
    18    44    45    1
    19    45    46    1
    20    15     6    1
    21    15    16   ar
    22    16    21    2
    23    16    17   ar
    24    17    23    1
    25    17    18   ar
    26    18    19   ar
    27    19    20   ar
    28    15    20   ar
    29    18    22    2
    30     6     7    1
    31     6    11    1
    32     7     9    1
    33     7     8    1
    34     8    13    1
    35     9    10    1
    36     9    12    1
    37    10     5    1
    38    10    11    1
    39    12    14    1
    40     5     4    1
    41     4     1    1
    42     1     2    1
    43     1    24    1
    44     1     3    2
    45    24    25    1
    46    28    25    1
    47    25    26    1
    48    25    27    2
@<TRIPOS>MOLECULE
UD2
 46 48 0 0 0
SMALL
GASTEIGER

@<TRIPOS>ATOM
      1 P          22.0796   70.8255   -0.2493 P.3     1  UNL1        0.2189
      2 O          21.4695   69.5138    0.4569 O.3     1  UNL1       -0.4371
      3 O          23.3169   70.4650   -0.9759 O.2     1  UNL1       -0.5170
      4 O          21.0037   71.4260   -1.2864 O.3     1  UNL1       -0.3112
      5 C          20.9100   70.9952   -2.6455 C.3     1  UNL1        0.1811
      6 C          18.3544   71.0720   -5.1751 C.3     1  UNL1        0.2383
      7 C          18.1504   69.7142   -4.4562 C.3     1  UNL1        0.1895
      8 O          16.7743   69.3296   -4.4734 O.3     1  UNL1       -0.3779
      9 C          18.6159   70.0361   -3.0150 C.3     1  UNL1        0.1713
     10 C          19.5038   71.2848   -3.1762 C.3     1  UNL1        0.1764
     11 O          19.5638   71.5890   -4.5788 O.3     1  UNL1       -0.3308
     12 O          17.4928   70.3247   -2.1807 O.3     1  UNL1       -0.3794
     13 H          16.5959   68.4860   -4.0361 H       1  UNL1        0.2106
     14 H          16.8692   69.5915   -2.0918 H       1  UNL1        0.2105
     15 N          18.5334   70.8715   -6.6148 N.ar    1  UNL1       -0.2551
     16 C          17.4557   70.7854   -7.4148 C.ar    1  UNL1        0.3323
     17 N          17.5907   70.6011   -8.7415 N.ar    1  UNL1       -0.2743
     18 C          18.8179   70.5013   -9.2915 C.ar    1  UNL1        0.2626
     19 C          19.9611   70.5912   -8.4614 C.ar    1  UNL1        0.0795
     20 C          19.7963   70.7804   -7.1353 C.ar    1  UNL1        0.0869
     21 O          16.3431   70.8738   -6.9326 O.2     1  UNL1       -0.2464
     22 O          18.9414   70.3349  -10.4922 O.2     1  UNL1       -0.2670
     23 H          16.8030   70.5400   -9.3037 H       1  UNL1        0.1734
     24 O          22.4179   71.9307    0.8720 O.3     1  UNL1       -0.2703
     25 P          22.0272   73.4806    1.0676 P.3     1  UNL1        0.2208
     26 O          20.4582   73.5987    1.4115 O.3     1  UNL1       -0.4371
     27 O          22.8193   74.0529    2.1782 O.2     1  UNL1       -0.5170
     28 O          22.3420   74.2887   -0.2890 O.3     1  UNL1       -0.2865
     29 C          23.6457   74.3574   -0.8694 C.3     1  UNL1        0.2611
     30 C          24.0714   75.8220   -0.9983 C.3     1  UNL1        0.1582
     31 C          23.1040   76.5449   -1.9406 C.3     1  UNL1        0.1625
     32 C          23.0893   75.8237   -3.2912 C.3     1  UNL1        0.1686
     33 C          22.7014   74.3587   -3.0739 C.3     1  UNL1        0.1760
     34 O          23.5365   77.8948   -2.1247 O.3     1  UNL1       -0.3801
     35 O          24.3879   75.8916   -3.8831 O.3     1  UNL1       -0.3794
     36 O          23.6225   73.7535   -2.1644 O.3     1  UNL1       -0.3263
     37 H          22.9682   78.4129   -2.7111 H       1  UNL1        0.2105
     38 H          24.4524   75.4532   -4.7431 H       1  UNL1        0.2105
     39 C          22.9406   77.1342    0.7155 C.2     1  UNL1        0.2231
     40 C          22.9054   77.7893    2.0713 C.3     1  UNL1        0.0946
     41 N          24.0380   76.4591    0.3206 N.am    1  UNL1       -0.2994
     42 O          21.9805   77.2142   -0.0221 O.2     1  UNL1       -0.2751
     43 H          24.8062   76.3958    0.9096 H       1  UNL1        0.1496
     44 C          22.7425   73.6167   -4.4111 C.3     1  UNL1        0.1693
     45 O          23.7130   72.5697   -4.3461 O.3     1  UNL1       -0.3794
     46 H          23.7933   72.0559   -5.1614 H       1  UNL1        0.2105
@<TRIPOS>BOND
     1    29    30    1
     2    30    41    1
     3    30    31    1
     4    31    34    1
     5    31    32    1
     6    32    35    1
     7    32    33    1
     8    33    36    1
     9    33    44    1
    10    39    40    1
    11    39    42    2
    12    39    41   am
    13    41    43    1
    14    29    28    1
    15    34    37    1
    16    35    38    1
    17    29    36    1
    18    44    45    1
    19    45    46    1
    20    15     6    1
    21    15    16   ar
    22    16    21    2
    23    16    17   ar
    24    17    23    1
    25    17    18   ar
    26    18    19   ar
    27    19    20   ar
    28    15    20   ar
    29    18    22    2
    30     6     7    1
    31     6    11    1
    32     7     9    1
    33     7     8    1
    34     8    13    1
    35     9    10    1
    36     9    12    1
    37    10     5    1
    38    10    11    1
    39    12    14    1
    40     5     4    1
    41     4     1    1
    42     1     2    1
    43     1    24    1
    44     1     3    2
    45    24    25    1
    46    28    25    1
    47    25    26    1
    48    25    27    2
@<TRIPOS>MOLECULE
UD2
 46 48 0 0 0
SMALL
GASTEIGER

@<TRIPOS>ATOM
      1 P          21.6266   70.5860   -0.4470 P.3     1  UNL1        0.2189
      2 O          21.7628   69.8812    0.9939 O.3     1  UNL1       -0.4371
      3 O          22.9421   70.5842   -1.1240 O.2     1  UNL1       -0.5170
      4 O          20.5611   69.7754   -1.3421 O.3     1  UNL1       -0.3112
      5 C          20.5158   69.8648   -2.7674 C.3     1  UNL1        0.1811
      6 C          18.6035   71.7843   -5.1329 C.3     1  UNL1        0.2383
      7 C          17.6368   70.6666   -4.6658 C.3     1  UNL1        0.1895
      8 O          16.2816   71.1187   -4.6961 O.3     1  UNL1       -0.3779
      9 C          18.1042   70.4193   -3.2106 C.3     1  UNL1        0.1713
     10 C          19.5419   70.9721   -3.1779 C.3     1  UNL1        0.1764
     11 O          19.8540   71.4311   -4.5028 O.3     1  UNL1       -0.3308
     12 O          17.2733   71.1310   -2.2920 O.3     1  UNL1       -0.3794
     13 H          15.6387   70.4546   -4.4129 H       1  UNL1        0.2106
     14 H          16.3444   70.8641   -2.3126 H       1  UNL1        0.2105
     15 N          18.7389   71.7730   -6.5912 N.ar    1  UNL1       -0.2551
     16 C          19.2184   72.8583   -7.2244 C.ar    1  UNL1        0.3323
     17 N          19.3534   72.8759   -8.5637 N.ar    1  UNL1       -0.2743
     18 C          19.0087   71.7964   -9.2948 C.ar    1  UNL1        0.2626
     19 C          18.5036   70.6467   -8.6412 C.ar    1  UNL1        0.0795
     20 C          18.3829   70.6554   -7.2970 C.ar    1  UNL1        0.0869
     21 O          19.5334   73.8388   -6.5779 O.2     1  UNL1       -0.2464
     22 O          19.1307   71.8109  -10.5069 O.2     1  UNL1       -0.2670
     23 H          19.6996   73.6671   -9.0044 H       1  UNL1        0.1734
     24 O          21.1224   72.1036   -0.2570 O.3     1  UNL1       -0.2703
     25 P          21.5107   73.5053   -0.9479 P.3     1  UNL1        0.2208
     26 O          22.2079   73.2259   -2.3725 O.3     1  UNL1       -0.4371
     27 O          20.2873   74.3125   -1.1481 O.2     1  UNL1       -0.5170
     28 O          22.5336   74.3069    0.0027 O.3     1  UNL1       -0.2865
     29 C          22.1056   75.1149    1.1005 C.3     1  UNL1        0.2611
     30 C          23.2826   75.9501    1.6101 C.3     1  UNL1        0.1582
     31 C          24.3792   75.0115    2.1231 C.3     1  UNL1        0.1625
     32 C          23.7944   74.1076    3.2118 C.3     1  UNL1        0.1686
     33 C          22.5974   73.3432    2.6403 C.3     1  UNL1        0.1760
     34 O          25.4515   75.7836    2.6684 O.3     1  UNL1       -0.3801
     35 O          23.3683   74.9059    4.3175 O.3     1  UNL1       -0.3794
     36 O          21.6287   74.2738    2.1529 O.3     1  UNL1       -0.3263
     37 H          26.1829   75.2524    3.0121 H       1  UNL1        0.2105
     38 H          22.9856   74.3974    5.0462 H       1  UNL1        0.2105
     39 C          24.7954   76.2899   -0.2697 C.2     1  UNL1        0.2231
     40 C          25.3392   77.1312   -1.3945 C.3     1  UNL1        0.0946
     41 N          23.8113   76.7691    0.5164 N.am    1  UNL1       -0.2994
     42 O          25.2433   75.1800   -0.0708 O.2     1  UNL1       -0.2751
     43 H          23.4536   77.6569    0.3584 H       1  UNL1        0.1496
     44 C          21.9706   72.4824    3.7387 C.3     1  UNL1        0.1693
     45 O          20.8182   71.8138    3.2217 O.3     1  UNL1       -0.3794
     46 H          20.3690   71.2487    3.8650 H       1  UNL1        0.2105
@<TRIPOS>BOND
     1    29    30    1
     2    30    41    1
     3    30    31    1
     4    31    34    1
     5    31    32    1
     6    32    35    1
     7    32    33    1
     8    33    36    1
     9    33    44    1
    10    39    40    1
    11    39    42    2
    12    39    41   am
    13    41    43    1
    14    29    28    1
    15    34    37    1
    16    35    38    1
    17    29    36    1
    18    44    45    1
    19    45    46    1
    20    15     6    1
    21    15    16   ar
    22    16    21    2
    23    16    17   ar
    24    17    23    1
    25    17    18   ar
    26    18    19   ar
    27    19    20   ar
    28    15    20   ar
    29    18    22    2
    30     6     7    1
    31     6    11    1
    32     7     9    1
    33     7     8    1
    34     8    13    1
    35     9    10    1
    36     9    12    1
    37    10     5    1
    38    10    11    1
    39    12    14    1
    40     5     4    1
    41     4     1    1
    42     1     2    1
    43     1    24    1
    44     1     3    2
    45    24    25    1
    46    28    25    1
    47    25    26    1
    48    25    27    2
@<TRIPOS>MOLECULE
UD2
 46 48 0 0 0
SMALL
GASTEIGER

@<TRIPOS>ATOM
      1 P          19.6597   69.9393   -2.4306 P.3     1  UNL1        0.2189
      2 O          18.5340   68.7904   -2.4936 O.3     1  UNL1       -0.4371
      3 O          20.6085   69.7632   -3.5521 O.2     1  UNL1       -0.5170
      4 O          18.9581   71.3846   -2.5430 O.3     1  UNL1       -0.3112
      5 C          17.6049   71.5607   -2.9664 C.3     1  UNL1        0.1811
      6 C          17.6872   72.9053   -6.3014 C.3     1  UNL1        0.2383
      7 C          16.1862   72.6327   -6.0280 C.3     1  UNL1        0.1895
      8 O          15.3622   73.5644   -6.7315 O.3     1  UNL1       -0.3779
      9 C          16.0887   72.8540   -4.4987 C.3     1  UNL1        0.1713
     10 C          17.5371   72.6869   -4.0010 C.3     1  UNL1        0.1764
     11 O          18.3453   72.3530   -5.1406 O.3     1  UNL1       -0.3308
     12 O          15.6103   74.1698   -4.2145 O.3     1  UNL1       -0.3794
     13 H          14.4143   73.4344   -6.5929 H       1  UNL1        0.2106
     14 H          14.7246   74.3497   -4.5574 H       1  UNL1        0.2105
     15 N          18.1232   72.2169   -7.5184 N.ar    1  UNL1       -0.2551
     16 C          17.8138   70.9204   -7.6979 C.ar    1  UNL1        0.3323
     17 N          18.2016   70.2626   -8.8065 N.ar    1  UNL1       -0.2743
     18 C          18.9097   70.8999   -9.7611 C.ar    1  UNL1        0.2626
     19 C          19.2414   72.2649   -9.5857 C.ar    1  UNL1        0.0795
     20 C          18.8360   72.9006   -8.4663 C.ar    1  UNL1        0.0869
     21 O          17.1756   70.3332   -6.8456 O.2     1  UNL1       -0.2464
     22 O          19.2609   70.3058  -10.7651 O.2     1  UNL1       -0.2670
     23 H          17.9711   69.3276   -8.9195 H       1  UNL1        0.1734
     24 O          20.4543   69.8365   -1.0337 O.3     1  UNL1       -0.2703
     25 P          21.6922   70.6404   -0.3900 P.3     1  UNL1        0.2208
     26 O          21.4229   70.8710    1.1810 O.3     1  UNL1       -0.4371
     27 O          22.9348   69.8576   -0.5672 O.2     1  UNL1       -0.5170
     28 O          21.8460   72.0656   -1.1234 O.3     1  UNL1       -0.2865
     29 C          23.0452   72.4765   -1.7825 C.3     1  UNL1        0.2611
     30 C          23.3330   73.9431   -1.4525 C.3     1  UNL1        0.1582
     31 C          22.1888   74.8113   -1.9848 C.3     1  UNL1        0.1625
     32 C          22.0395   74.5735   -3.4900 C.3     1  UNL1        0.1686
     33 C          21.8014   73.0822   -3.7415 C.3     1  UNL1        0.1760
     34 O          22.4845   76.1893   -1.7460 O.3     1  UNL1       -0.3801
     35 O          23.2321   74.9869   -4.1595 O.3     1  UNL1       -0.3794
     36 O          22.8862   72.3295   -3.1951 O.3     1  UNL1       -0.3263
     37 H          21.8004   76.7977   -2.0577 H       1  UNL1        0.2105
     38 H          23.2082   74.8639   -5.1188 H       1  UNL1        0.2105
     39 C          22.3407   74.4044    0.7247 C.2     1  UNL1        0.2231
     40 C          22.4466   74.5724    2.2178 C.3     1  UNL1        0.0946
     41 N          23.4370   74.1067   -0.0002 N.am    1  UNL1       -0.2994
     42 O          21.2678   74.5371    0.1738 O.2     1  UNL1       -0.2751
     43 H          24.2951   74.0014    0.4397 H       1  UNL1        0.1496
     44 C          21.7107   72.8273   -5.2472 C.3     1  UNL1        0.1693
     45 O          20.9780   73.8862   -5.8670 O.3     1  UNL1       -0.3794
     46 H          20.8807   73.7901   -6.8243 H       1  UNL1        0.2105
@<TRIPOS>BOND
     1    29    30    1
     2    30    41    1
     3    30    31    1
     4    31    34    1
     5    31    32    1
     6    32    35    1
     7    32    33    1
     8    33    36    1
     9    33    44    1
    10    39    40    1
    11    39    42    2
    12    39    41   am
    13    41    43    1
    14    29    28    1
    15    34    37    1
    16    35    38    1
    17    29    36    1
    18    44    45    1
    19    45    46    1
    20    15     6    1
    21    15    16   ar
    22    16    21    2
    23    16    17   ar
    24    17    23    1
    25    17    18   ar
    26    18    19   ar
    27    19    20   ar
    28    15    20   ar
    29    18    22    2
    30     6     7    1
    31     6    11    1
    32     7     9    1
    33     7     8    1
    34     8    13    1
    35     9    10    1
    36     9    12    1
    37    10     5    1
    38    10    11    1
    39    12    14    1
    40     5     4    1
    41     4     1    1
    42     1     2    1
    43     1    24    1
    44     1     3    2
    45    24    25    1
    46    28    25    1
    47    25    26    1
    48    25    27    2
@<TRIPOS>MOLECULE
UD2
 46 48 0 0 0
SMALL
GASTEIGER

@<TRIPOS>ATOM
      1 P          22.3906   72.9758   -3.9531 P.3     1  UNL1        0.2189
      2 O          21.6675   73.6891   -5.2021 O.3     1  UNL1       -0.4371
      3 O          23.8409   72.8610   -4.2218 O.2     1  UNL1       -0.5170
      4 O          22.1588   73.8562   -2.6247 O.3     1  UNL1       -0.3112
      5 C          21.6089   73.3171   -1.4212 C.3     1  UNL1        0.1811
      6 C          23.1979   72.3908    1.6697 C.3     1  UNL1        0.2383
      7 C          22.3957   71.1324    1.2515 C.3     1  UNL1        0.1895
      8 O          23.0423   69.9414    1.7044 O.3     1  UNL1       -0.3779
      9 C          22.4277   71.2248   -0.2938 C.3     1  UNL1        0.1713
     10 C          22.7307   72.7088   -0.5760 C.3     1  UNL1        0.1764
     11 O          22.8054   73.3789    0.6924 O.3     1  UNL1       -0.3308
     12 O          23.4624   70.3934   -0.8219 O.3     1  UNL1       -0.3794
     13 H          22.5781   69.1271    1.4677 H       1  UNL1        0.2106
     14 H          23.3532   69.4538   -0.6227 H       1  UNL1        0.2105
     15 N          22.8193   72.8193    3.0180 N.ar    1  UNL1       -0.2551
     16 C          21.5773   72.5732    3.4714 C.ar    1  UNL1        0.3323
     17 N          21.2020   72.9559    4.7062 N.ar    1  UNL1       -0.2743
     18 C          22.0735   73.5948    5.5130 C.ar    1  UNL1        0.2626
     19 C          23.3845   73.8595    5.0490 C.ar    1  UNL1        0.0795
     20 C          23.7349   73.4607    3.8082 C.ar    1  UNL1        0.0869
     21 O          20.7811   71.9978    2.7549 O.2     1  UNL1       -0.2464
     22 O          21.7352   73.9413    6.6310 O.2     1  UNL1       -0.2670
     23 H          20.3022   72.7716    5.0169 H       1  UNL1        0.1734
     24 O          21.7663   71.5070   -3.7384 O.3     1  UNL1       -0.2703
     25 P          20.2657   70.9237   -3.7079 P.3     1  UNL1        0.2208
     26 O          20.2781   69.4449   -3.0701 O.3     1  UNL1       -0.4371
     27 O          19.4092   71.8073   -2.8868 O.2     1  UNL1       -0.5170
     28 O          19.6855   70.8566   -5.2084 O.3     1  UNL1       -0.2865
     29 C          18.9872   71.9414   -5.8223 C.3     1  UNL1        0.2611
     30 C          17.4945   71.6114   -5.8971 C.3     1  UNL1        0.1582
     31 C          17.2975   70.3737   -6.7778 C.3     1  UNL1        0.1625
     32 C          17.9027   70.6412   -8.1586 C.3     1  UNL1        0.1686
     33 C          19.3801   71.0086   -7.9965 C.3     1  UNL1        0.1760
     34 O          15.9007   70.1017   -6.9131 O.3     1  UNL1       -0.3801
     35 O          17.2072   71.7213   -8.7838 O.3     1  UNL1       -0.3794
     36 O          19.4950   72.1482   -7.1421 O.3     1  UNL1       -0.3263
     37 H          15.7020   69.3286   -7.4590 H       1  UNL1        0.2105
     38 H          17.5391   71.9465   -9.6642 H       1  UNL1        0.2105
     39 C          16.1520   72.2168   -3.9557 C.2     1  UNL1        0.2231
     40 C          15.6278   71.9387   -2.5714 C.3     1  UNL1        0.0946
     41 N          16.9852   71.3403   -4.5504 N.am    1  UNL1       -0.2994
     42 O          15.8243   73.2305   -4.5363 O.2     1  UNL1       -0.2751
     43 H          17.2483   70.5301   -4.0862 H       1  UNL1        0.1496
     44 C          19.9773   71.3356   -9.3665 C.3     1  UNL1        0.1693
     45 O          19.0887   70.8897  -10.3931 O.3     1  UNL1       -0.3794
     46 H          19.4040   71.0646  -11.2903 H       1  UNL1        0.2105
@<TRIPOS>BOND
     1    29    30    1
     2    30    41    1
     3    30    31    1
     4    31    34    1
     5    31    32    1
     6    32    35    1
     7    32    33    1
     8    33    36    1
     9    33    44    1
    10    39    40    1
    11    39    42    2
    12    39    41   am
    13    41    43    1
    14    29    28    1
    15    34    37    1
    16    35    38    1
    17    29    36    1
    18    44    45    1
    19    45    46    1
    20    15     6    1
    21    15    16   ar
    22    16    21    2
    23    16    17   ar
    24    17    23    1
    25    17    18   ar
    26    18    19   ar
    27    19    20   ar
    28    15    20   ar
    29    18    22    2
    30     6     7    1
    31     6    11    1
    32     7     9    1
    33     7     8    1
    34     8    13    1
    35     9    10    1
    36     9    12    1
    37    10     5    1
    38    10    11    1
    39    12    14    1
    40     5     4    1
    41     4     1    1
    42     1     2    1
    43     1    24    1
    44     1     3    2
    45    24    25    1
    46    28    25    1
    47    25    26    1
    48    25    27    2
@<TRIPOS>MOLECULE
UD2
 46 48 0 0 0
SMALL
GASTEIGER

@<TRIPOS>ATOM
      1 P          20.7421   74.1103   -3.5378 P.3     1  UNL1        0.2189
      2 O          21.0734   75.3303   -2.5412 O.3     1  UNL1       -0.4371
      3 O          21.7845   74.0306   -4.5847 O.2     1  UNL1       -0.5170
      4 O          20.7102   72.7316   -2.7061 O.3     1  UNL1       -0.3112
      5 C          20.5641   72.6841   -1.2855 C.3     1  UNL1        0.1811
      6 C          22.8321   72.3773    1.4891 C.3     1  UNL1        0.2383
      7 C          22.2970   70.9405    1.2624 C.3     1  UNL1        0.1895
      8 O          23.2786   69.9675    1.6250 O.3     1  UNL1       -0.3779
      9 C          22.0421   70.9255   -0.2647 C.3     1  UNL1        0.1713
     10 C          21.9265   72.4147   -0.6418 C.3     1  UNL1        0.1764
     11 O          22.0528   73.1742    0.5709 O.3     1  UNL1       -0.3308
     12 O          23.1408   70.3198   -0.9480 O.3     1  UNL1       -0.3794
     13 H          22.9906   69.0529    1.5016 H       1  UNL1        0.2106
     14 H          23.2964   69.3975   -0.7041 H       1  UNL1        0.2105
     15 N          22.5970   72.8033    2.8705 N.ar    1  UNL1       -0.2551
     16 C          21.3964   72.5911    3.4382 C.ar    1  UNL1        0.3323
     17 N          21.1524   72.9724    4.7059 N.ar    1  UNL1       -0.2743
     18 C          22.1164   73.5756    5.4308 C.ar    1  UNL1        0.2626
     19 C          23.3852   73.8044    4.8461 C.ar    1  UNL1        0.0795
     20 C          23.6034   73.4079    3.5746 C.ar    1  UNL1        0.0869
     21 O          20.5179   72.0480    2.7965 O.2     1  UNL1       -0.2464
     22 O          21.8969   73.9208    6.5785 O.2     1  UNL1       -0.2670
     23 H          20.2807   72.8128    5.0995 H       1  UNL1        0.1734
     24 O          19.3069   74.3541   -4.2264 O.3     1  UNL1       -0.2703
     25 P          18.8327   74.9952   -5.6254 P.3     1  UNL1        0.2208
     26 O          17.4059   75.7157   -5.4287 O.3     1  UNL1       -0.4371
     27 O          19.8298   75.9912   -6.0750 O.2     1  UNL1       -0.5170
     28 O          18.6993   73.8320   -6.7308 O.3     1  UNL1       -0.2865
     29 C          19.4840   72.6384   -6.7035 C.3     1  UNL1        0.2611
     30 C          20.1017   72.4010   -8.0836 C.3     1  UNL1        0.1582
     31 C          18.9803   72.1971   -9.1071 C.3     1  UNL1        0.1625
     32 C          18.0990   71.0288   -8.6568 C.3     1  UNL1        0.1686
     33 C          17.5584   71.3192   -7.2542 C.3     1  UNL1        0.1760
     34 O          19.5486   71.9018  -10.3850 O.3     1  UNL1       -0.3801
     35 O          18.8734   69.8283   -8.6316 O.3     1  UNL1       -0.3794
     36 O          18.6515   71.5294   -6.3581 O.3     1  UNL1       -0.3263
     37 H          18.8941   71.7613  -11.0830 H       1  UNL1        0.2105
     38 H          18.3776   69.0454   -8.3537 H       1  UNL1        0.2105
     39 C          22.1998   73.6400   -8.0905 C.2     1  UNL1        0.2231
     40 C          23.0293   74.8345   -8.4828 C.3     1  UNL1        0.0946
     41 N          20.9077   73.5633   -8.4655 N.am    1  UNL1       -0.2994
     42 O          22.6949   72.7460   -7.4363 O.2     1  UNL1       -0.2751
     43 H          20.5113   74.2782   -8.9876 H       1  UNL1        0.1496
     44 C          16.7251   70.1300   -6.7727 C.3     1  UNL1        0.1693
     45 O          16.7533   70.0746   -5.3449 O.3     1  UNL1       -0.3794
     46 H          16.2446   69.3432   -4.9690 H       1  UNL1        0.2105
@<TRIPOS>BOND
     1    29    30    1
     2    30    41    1
     3    30    31    1
     4    31    34    1
     5    31    32    1
     6    32    35    1
     7    32    33    1
     8    33    36    1
     9    33    44    1
    10    39    40    1
    11    39    42    2
    12    39    41   am
    13    41    43    1
    14    29    28    1
    15    34    37    1
    16    35    38    1
    17    29    36    1
    18    44    45    1
    19    45    46    1
    20    15     6    1
    21    15    16   ar
    22    16    21    2
    23    16    17   ar
    24    17    23    1
    25    17    18   ar
    26    18    19   ar
    27    19    20   ar
    28    15    20   ar
    29    18    22    2
    30     6     7    1
    31     6    11    1
    32     7     9    1
    33     7     8    1
    34     8    13    1
    35     9    10    1
    36     9    12    1
    37    10     5    1
    38    10    11    1
    39    12    14    1
    40     5     4    1
    41     4     1    1
    42     1     2    1
    43     1    24    1
    44     1     3    2
    45    24    25    1
    46    28    25    1
    47    25    26    1
    48    25    27    2
@<TRIPOS>MOLECULE
UD2
 46 48 0 0 0
SMALL
GASTEIGER

@<TRIPOS>ATOM
      1 P          21.6222   70.5825   -0.3608 P.3     1  UNL1        0.2189
      2 O          21.6647   69.2629    0.5602 O.3     1  UNL1       -0.4371
      3 O          22.9399   70.7783   -1.0044 O.2     1  UNL1       -0.5170
      4 O          20.4916   70.4092   -1.4945 O.3     1  UNL1       -0.3112
      5 C          20.1909   71.4245   -2.4538 C.3     1  UNL1        0.1811
      6 C          20.9468   71.8098   -5.9491 C.3     1  UNL1        0.2383
      7 C          21.7370   72.9462   -5.2519 C.3     1  UNL1        0.1895
      8 O          22.9349   73.2493   -5.9696 O.3     1  UNL1       -0.3779
      9 C          22.0623   72.3186   -3.8743 C.3     1  UNL1        0.1713
     10 C          21.0219   71.1931   -3.7183 C.3     1  UNL1        0.1764
     11 O          20.1720   71.2325   -4.8757 O.3     1  UNL1       -0.3308
     12 O          23.3858   71.7809   -3.8711 O.3     1  UNL1       -0.3794
     13 H          23.4636   73.9548   -5.5729 H       1  UNL1        0.2106
     14 H          24.0783   72.4377   -4.0245 H       1  UNL1        0.2105
     15 N          20.0672   72.3540   -6.9860 N.ar    1  UNL1       -0.2551
     16 C          19.8077   71.6282   -8.0881 C.ar    1  UNL1        0.3323
     17 N          19.0032   72.1035   -9.0571 N.ar    1  UNL1       -0.2743
     18 C          18.4403   73.3228   -8.9346 C.ar    1  UNL1        0.2626
     19 C          18.7039   74.0972   -7.7792 C.ar    1  UNL1        0.0795
     20 C          19.5110   73.5940   -6.8216 C.ar    1  UNL1        0.0869
     21 O          20.3083   70.5271   -8.2119 O.2     1  UNL1       -0.2464
     22 O          17.7116   73.7540   -9.8107 O.2     1  UNL1       -0.2670
     23 H          18.8276   71.5676   -9.8459 H       1  UNL1        0.1734
     24 O          21.2745   71.8632    0.5515 O.3     1  UNL1       -0.2703
     25 P          21.9864   72.5615    1.8158 P.3     1  UNL1        0.2208
     26 O          22.8598   71.4669    2.6114 O.3     1  UNL1       -0.4371
     27 O          22.8707   73.6500    1.3453 O.2     1  UNL1       -0.5170
     28 O          20.8629   73.1682    2.7967 O.3     1  UNL1       -0.2865
     29 C          20.8672   74.5268    3.2391 C.3     1  UNL1        0.2611
     30 C          21.5873   74.6235    4.5863 C.3     1  UNL1        0.1582
     31 C          20.8215   73.7984    5.6252 C.3     1  UNL1        0.1625
     32 C          19.3786   74.3049    5.7007 C.3     1  UNL1        0.1686
     33 C          18.7434   74.2204    4.3102 C.3     1  UNL1        0.1760
     34 O          21.4457   73.9423    6.9031 O.3     1  UNL1       -0.3801
     35 O          19.3714   75.6618    6.1479 O.3     1  UNL1       -0.3794
     36 O          19.5211   74.9837    3.3858 O.3     1  UNL1       -0.3263
     37 H          21.0124   73.4448    7.6102 H       1  UNL1        0.2105
     38 H          18.4875   76.0486    6.2187 H       1  UNL1        0.2105
     39 C          24.0014   74.8546    4.8240 C.2     1  UNL1        0.2231
     40 C          25.4015   74.3167    4.6865 C.3     1  UNL1        0.0946
     41 N          22.9490   74.0996    4.4519 N.am    1  UNL1       -0.2994
     42 O          23.8204   75.9684    5.2699 O.2     1  UNL1       -0.2751
     43 H          23.0933   73.2094    4.0944 H       1  UNL1        0.1496
     44 C          17.3208   74.7804    4.3647 C.3     1  UNL1        0.1693
     45 O          16.8094   74.6551    5.6933 O.3     1  UNL1       -0.3794
     46 H          15.9091   74.9909    5.8021 H       1  UNL1        0.2105
@<TRIPOS>BOND
     1    29    30    1
     2    30    41    1
     3    30    31    1
     4    31    34    1
     5    31    32    1
     6    32    35    1
     7    32    33    1
     8    33    36    1
     9    33    44    1
    10    39    40    1
    11    39    42    2
    12    39    41   am
    13    41    43    1
    14    29    28    1
    15    34    37    1
    16    35    38    1
    17    29    36    1
    18    44    45    1
    19    45    46    1
    20    15     6    1
    21    15    16   ar
    22    16    21    2
    23    16    17   ar
    24    17    23    1
    25    17    18   ar
    26    18    19   ar
    27    19    20   ar
    28    15    20   ar
    29    18    22    2
    30     6     7    1
    31     6    11    1
    32     7     9    1
    33     7     8    1
    34     8    13    1
    35     9    10    1
    36     9    12    1
    37    10     5    1
    38    10    11    1
    39    12    14    1
    40     5     4    1
    41     4     1    1
    42     1     2    1
    43     1    24    1
    44     1     3    2
    45    24    25    1
    46    28    25    1
    47    25    26    1
    48    25    27    2
@<TRIPOS>MOLECULE
UD2
 46 48 0 0 0
SMALL
GASTEIGER

@<TRIPOS>ATOM
      1 P          22.2920   70.4066   -0.3884 P.3     1  UNL1        0.2189
      2 O          23.0775   69.0953    0.1164 O.3     1  UNL1       -0.4371
      3 O          20.8353   70.1485   -0.3671 O.2     1  UNL1       -0.5170
      4 O          22.6322   71.6437    0.5850 O.3     1  UNL1       -0.3112
      5 C          22.2455   71.6798    1.9600 C.3     1  UNL1        0.1811
      6 C          20.5974   74.2448    3.8682 C.3     1  UNL1        0.2383
      7 C          21.7264   74.9880    3.1098 C.3     1  UNL1        0.1895
      8 O          21.3462   76.3349    2.8213 O.3     1  UNL1       -0.3779
      9 C          21.8459   74.1571    1.8087 C.3     1  UNL1        0.1713
     10 C          21.2206   72.7967    2.1720 C.3     1  UNL1        0.1764
     11 O          20.8416   72.8560    3.5563 O.3     1  UNL1       -0.3308
     12 O          21.1136   74.7783    0.7511 O.3     1  UNL1       -0.3794
     13 H          22.0201   76.8412    2.3480 H       1  UNL1        0.2106
     14 H          21.4277   75.6630    0.5210 H       1  UNL1        0.2105
     15 N          20.7054   74.4768    5.3103 N.ar    1  UNL1       -0.2551
     16 C          21.7689   74.0033    5.9837 C.ar    1  UNL1        0.3323
     17 N          21.8939   74.2015    7.3093 N.ar    1  UNL1       -0.2743
     18 C          20.9481   74.8845    7.9856 C.ar    1  UNL1        0.2626
     19 C          19.8237   75.3895    7.2892 C.ar    1  UNL1        0.0795
     20 C          19.7263   75.1797    5.9595 C.ar    1  UNL1        0.0869
     21 O          22.6295   73.3857    5.3867 O.2     1  UNL1       -0.2464
     22 O          21.0602   75.0650    9.1853 O.2     1  UNL1       -0.2670
     23 H          22.6665   73.8522    7.7797 H       1  UNL1        0.1734
     24 O          22.7523   70.7636   -1.8897 O.3     1  UNL1       -0.2703
     25 P          22.5750   72.0541   -2.8363 P.3     1  UNL1        0.2208
     26 O          22.1388   73.3198   -1.9410 O.3     1  UNL1       -0.4371
     27 O          23.8562   72.3486   -3.5145 O.2     1  UNL1       -0.5170
     28 O          21.4390   71.7590   -3.9386 O.3     1  UNL1       -0.2865
     29 C          20.5223   72.7542   -4.3974 C.3     1  UNL1        0.2611
     30 C          19.2564   72.0772   -4.9285 C.3     1  UNL1        0.1582
     31 C          19.6235   71.1955   -6.1261 C.3     1  UNL1        0.1625
     32 C          20.3106   72.0570   -7.1891 C.3     1  UNL1        0.1686
     33 C          21.5361   72.7349   -6.5707 C.3     1  UNL1        0.1760
     34 O          18.4369   70.6168   -6.6741 O.3     1  UNL1       -0.3801
     35 O          19.3998   73.0525   -7.6590 O.3     1  UNL1       -0.3794
     36 O          21.1296   73.5144   -5.4442 O.3     1  UNL1       -0.3263
     37 H          18.5952   70.0442   -7.4372 H       1  UNL1        0.2105
     38 H          19.7694   73.6366   -8.3359 H       1  UNL1        0.2105
     39 C          19.0330   69.9597   -3.7436 C.2     1  UNL1        0.2231
     40 C          18.4256   69.1083   -2.6598 C.3     1  UNL1        0.0946
     41 N          18.6651   71.2496   -3.8741 N.am    1  UNL1       -0.2994
     42 O          19.8540   69.4845   -4.5001 O.2     1  UNL1       -0.2751
     43 H          18.0080   71.6297   -3.2701 H       1  UNL1        0.1496
     44 C          22.1942   73.6445   -7.6100 C.3     1  UNL1        0.1693
     45 O          21.9887   73.1030   -8.9164 O.3     1  UNL1       -0.3794
     46 H          22.3801   73.6292   -9.6270 H       1  UNL1        0.2105
@<TRIPOS>BOND
     1    29    30    1
     2    30    41    1
     3    30    31    1
     4    31    34    1
     5    31    32    1
     6    32    35    1
     7    32    33    1
     8    33    36    1
     9    33    44    1
    10    39    40    1
    11    39    42    2
    12    39    41   am
    13    41    43    1
    14    29    28    1
    15    34    37    1
    16    35    38    1
    17    29    36    1
    18    44    45    1
    19    45    46    1
    20    15     6    1
    21    15    16   ar
    22    16    21    2
    23    16    17   ar
    24    17    23    1
    25    17    18   ar
    26    18    19   ar
    27    19    20   ar
    28    15    20   ar
    29    18    22    2
    30     6     7    1
    31     6    11    1
    32     7     9    1
    33     7     8    1
    34     8    13    1
    35     9    10    1
    36     9    12    1
    37    10     5    1
    38    10    11    1
    39    12    14    1
    40     5     4    1
    41     4     1    1
    42     1     2    1
    43     1    24    1
    44     1     3    2
    45    24    25    1
    46    28    25    1
    47    25    26    1
    48    25    27    2
@<TRIPOS>MOLECULE
UD2
 46 48 0 0 0
SMALL
GASTEIGER

@<TRIPOS>ATOM
      1 P          22.2739   70.4889   -0.3599 P.3     1  UNL1        0.2189
      2 O          21.4271   70.9737    0.9205 O.3     1  UNL1       -0.4371
      3 O          23.3376   69.5572    0.0753 O.2     1  UNL1       -0.5170
      4 O          21.2960   69.7402   -1.3977 O.3     1  UNL1       -0.3112
      5 C          21.2707   70.0381   -2.7948 C.3     1  UNL1        0.1811
      6 C          18.5929   70.7427   -5.0904 C.3     1  UNL1        0.2383
      7 C          18.2497   69.3482   -4.5075 C.3     1  UNL1        0.1895
      8 O          16.8355   69.1507   -4.4565 O.3     1  UNL1       -0.3779
      9 C          18.8470   69.4357   -3.0817 C.3     1  UNL1        0.1713
     10 C          19.8869   70.5684   -3.1778 C.3     1  UNL1        0.1764
     11 O          19.8980   71.0244   -4.5400 O.3     1  UNL1       -0.3308
     12 O          17.8306   69.7683   -2.1345 O.3     1  UNL1       -0.3794
     13 H          16.5706   68.2922   -4.0996 H       1  UNL1        0.2106
     14 H          17.1185   69.1172   -2.0756 H       1  UNL1        0.2105
     15 N          18.6496   70.6907   -6.5529 N.ar    1  UNL1       -0.2551
     16 C          17.5179   70.8168   -7.2686 C.ar    1  UNL1        0.3323
     17 N          17.5404   70.7727   -8.6139 N.ar    1  UNL1       -0.2743
     18 C          18.7073   70.6019   -9.2679 C.ar    1  UNL1        0.2626
     19 C          19.9064   70.4689   -8.5272 C.ar    1  UNL1        0.0795
     20 C          19.8549   70.5212   -7.1796 C.ar    1  UNL1        0.0869
     21 O          16.4586   70.9715   -6.6922 O.2     1  UNL1       -0.2464
     22 O          18.7291   70.5622  -10.4855 O.2     1  UNL1       -0.2670
     23 H          16.7151   70.8641   -9.1145 H       1  UNL1        0.1734
     24 O          22.9402   71.7670   -1.0782 O.3     1  UNL1       -0.2703
     25 P          22.6120   73.3434   -1.0839 P.3     1  UNL1        0.2208
     26 O          21.2007   73.5999   -0.3516 O.3     1  UNL1       -0.4371
     27 O          23.6797   74.0725   -0.3651 O.2     1  UNL1       -0.5170
     28 O          22.5319   73.8693   -2.6037 O.3     1  UNL1       -0.2865
     29 C          23.6251   73.7750   -3.5187 C.3     1  UNL1        0.2611
     30 C          24.2109   75.1683   -3.7605 C.3     1  UNL1        0.1582
     31 C          23.1420   76.0576   -4.4030 C.3     1  UNL1        0.1625
     32 C          22.6562   75.3995   -5.6974 C.3     1  UNL1        0.1686
     33 C          22.1302   73.9970   -5.3808 C.3     1  UNL1        0.1760
     34 O          23.7024   77.3387   -4.6998 O.3     1  UNL1       -0.3801
     35 O          23.7414   75.3057   -6.6220 O.3     1  UNL1       -0.3794
     36 O          23.1636   73.2319   -4.7574 O.3     1  UNL1       -0.3263
     37 H          23.0794   77.9549   -5.1088 H       1  UNL1        0.2105
     38 H          23.5053   74.8968   -7.4664 H       1  UNL1        0.2105
     39 C          25.8029   76.4091   -2.3954 C.2     1  UNL1        0.2231
     40 C          26.2343   77.0090   -1.0829 C.3     1  UNL1        0.0946
     41 N          24.6300   75.7513   -2.4834 N.am    1  UNL1       -0.2994
     42 O          26.5114   76.5180   -3.3744 O.2     1  UNL1       -0.2751
     43 H          24.0637   75.6632   -1.7007 H       1  UNL1        0.1496
     44 C          21.6980   73.3099   -6.6775 C.3     1  UNL1        0.1693
     45 O          22.8201   72.6457   -7.2623 O.3     1  UNL1       -0.3794
     46 H          22.6191   72.1872   -8.0897 H       1  UNL1        0.2105
@<TRIPOS>BOND
     1    29    30    1
     2    30    41    1
     3    30    31    1
     4    31    34    1
     5    31    32    1
     6    32    35    1
     7    32    33    1
     8    33    36    1
     9    33    44    1
    10    39    40    1
    11    39    42    2
    12    39    41   am
    13    41    43    1
    14    29    28    1
    15    34    37    1
    16    35    38    1
    17    29    36    1
    18    44    45    1
    19    45    46    1
    20    15     6    1
    21    15    16   ar
    22    16    21    2
    23    16    17   ar
    24    17    23    1
    25    17    18   ar
    26    18    19   ar
    27    19    20   ar
    28    15    20   ar
    29    18    22    2
    30     6     7    1
    31     6    11    1
    32     7     9    1
    33     7     8    1
    34     8    13    1
    35     9    10    1
    36     9    12    1
    37    10     5    1
    38    10    11    1
    39    12    14    1
    40     5     4    1
    41     4     1    1
    42     1     2    1
    43     1    24    1
    44     1     3    2
    45    24    25    1
    46    28    25    1
    47    25    26    1
    48    25    27    2
@<TRIPOS>MOLECULE
UD2
 46 48 0 0 0
SMALL
GASTEIGER

@<TRIPOS>ATOM
      1 P          19.6403   69.9608   -2.6119 P.3     1  UNL1        0.2189
      2 O          18.4561   68.8880   -2.4166 O.3     1  UNL1       -0.4371
      3 O          20.6693   69.4016   -3.5159 O.2     1  UNL1       -0.5170
      4 O          19.0404   71.3115   -3.2518 O.3     1  UNL1       -0.3112
      5 C          17.6404   71.5284   -3.4375 C.3     1  UNL1        0.1811
      6 C          18.6162   72.5122   -6.7566 C.3     1  UNL1        0.2383
      7 C          18.5031   70.9679   -6.8253 C.3     1  UNL1        0.1895
      8 O          18.1082   70.5430   -8.1311 O.3     1  UNL1       -0.3779
      9 C          17.3897   70.6770   -5.7894 C.3     1  UNL1        0.1713
     10 C          17.3749   71.9284   -4.8909 C.3     1  UNL1        0.1764
     11 O          18.4169   72.8011   -5.3558 O.3     1  UNL1       -0.3308
     12 O          16.1299   70.5153   -6.4433 O.3     1  UNL1       -0.3794
     13 H          18.0243   69.5844   -8.2244 H       1  UNL1        0.2106
     14 H          16.1011   69.7767   -7.0662 H       1  UNL1        0.2105
     15 N          19.9441   72.9519   -7.1906 N.ar    1  UNL1       -0.2551
     16 C          20.1111   73.4424   -8.4317 C.ar    1  UNL1        0.3323
     17 N          21.3202   73.8537   -8.8573 N.ar    1  UNL1       -0.2743
     18 C          22.3889   73.7808   -8.0382 C.ar    1  UNL1        0.2626
     19 C          22.2274   73.2675   -6.7287 C.ar    1  UNL1        0.0795
     20 C          21.0030   72.8664   -6.3271 C.ar    1  UNL1        0.0869
     21 O          19.1562   73.5141   -9.1810 O.2     1  UNL1       -0.2464
     22 O          23.4837   74.1532   -8.4220 O.2     1  UNL1       -0.2670
     23 H          21.4232   74.2037   -9.7556 H       1  UNL1        0.1734
     24 O          20.3043   70.2937   -1.1831 O.3     1  UNL1       -0.2703
     25 P          21.8208   70.3874   -0.6498 P.3     1  UNL1        0.2208
     26 O          22.1121   69.1637    0.3559 O.3     1  UNL1       -0.4371
     27 O          22.7526   70.3152   -1.7964 O.2     1  UNL1       -0.5170
     28 O          22.0313   71.7823    0.1265 O.3     1  UNL1       -0.2865
     29 C          20.9585   72.5057    0.7324 C.3     1  UNL1        0.2611
     30 C          21.1181   73.9991    0.4375 C.3     1  UNL1        0.1582
     31 C          22.4256   74.4970    1.0614 C.3     1  UNL1        0.1625
     32 C          22.4073   74.2006    2.5634 C.3     1  UNL1        0.1686
     33 C          22.1980   72.6990    2.7764 C.3     1  UNL1        0.1760
     34 O          22.5470   75.9061    0.8541 O.3     1  UNL1       -0.3801
     35 O          21.3408   74.9242    3.1801 O.3     1  UNL1       -0.3794
     36 O          20.9809   72.2952    2.1457 O.3     1  UNL1       -0.3263
     37 H          23.3542   76.2894    1.2235 H       1  UNL1        0.2105
     38 H          21.2690   74.7829    4.1345 H       1  UNL1        0.2105
     39 C          22.3350   74.2047   -1.6636 C.2     1  UNL1        0.2231
     40 C          22.3743   74.4216   -3.1536 C.3     1  UNL1        0.0946
     41 N          21.1555   74.2104   -1.0118 N.am    1  UNL1       -0.2994
     42 O          23.3657   74.0246   -1.0493 O.2     1  UNL1       -0.2751
     43 H          20.3313   74.3554   -1.5024 H       1  UNL1        0.1496
     44 C          22.1188   72.4028    4.2752 C.3     1  UNL1        0.1693
     45 O          22.8789   73.3760    4.9946 O.3     1  UNL1       -0.3794
     46 H          22.8736   73.2498    5.9533 H       1  UNL1        0.2105
@<TRIPOS>BOND
     1    29    30    1
     2    30    41    1
     3    30    31    1
     4    31    34    1
     5    31    32    1
     6    32    35    1
     7    32    33    1
     8    33    36    1
     9    33    44    1
    10    39    40    1
    11    39    42    2
    12    39    41   am
    13    41    43    1
    14    29    28    1
    15    34    37    1
    16    35    38    1
    17    29    36    1
    18    44    45    1
    19    45    46    1
    20    15     6    1
    21    15    16   ar
    22    16    21    2
    23    16    17   ar
    24    17    23    1
    25    17    18   ar
    26    18    19   ar
    27    19    20   ar
    28    15    20   ar
    29    18    22    2
    30     6     7    1
    31     6    11    1
    32     7     9    1
    33     7     8    1
    34     8    13    1
    35     9    10    1
    36     9    12    1
    37    10     5    1
    38    10    11    1
    39    12    14    1
    40     5     4    1
    41     4     1    1
    42     1     2    1
    43     1    24    1
    44     1     3    2
    45    24    25    1
    46    28    25    1
    47    25    26    1
    48    25    27    2
@<TRIPOS>MOLECULE
UD2
 46 48 0 0 0
SMALL
GASTEIGER

@<TRIPOS>ATOM
      1 P          22.9953   73.4618   -3.9702 P.3     1  UNL1        0.2189
      2 O          23.6447   72.0095   -3.7244 O.3     1  UNL1       -0.4371
      3 O          22.8329   73.6909   -5.4228 O.2     1  UNL1       -0.5170
      4 O          21.5562   73.5347   -3.2510 O.3     1  UNL1       -0.3112
      5 C          21.3376   73.1083   -1.9050 C.3     1  UNL1        0.1811
      6 C          19.1766   70.6799   -3.4443 C.3     1  UNL1        0.2383
      7 C          20.5404   69.9566   -3.3072 C.3     1  UNL1        0.1895
      8 O          20.3565   68.5512   -3.1257 O.3     1  UNL1       -0.3779
      9 C          21.1264   70.6065   -2.0299 C.3     1  UNL1        0.1713
     10 C          20.3560   71.9339   -1.8954 C.3     1  UNL1        0.1764
     11 O          19.4686   72.0294   -3.0209 O.3     1  UNL1       -0.3308
     12 O          20.8909   69.7736   -0.8933 O.3     1  UNL1       -0.3794
     13 H          21.1811   68.0548   -3.0356 H       1  UNL1        0.2106
     14 H          21.3044   68.9018   -0.9512 H       1  UNL1        0.2105
     15 N          18.7211   70.6626   -4.8361 N.ar    1  UNL1       -0.2551
     16 C          17.4753   70.2456   -5.1245 C.ar    1  UNL1        0.3323
     17 N          17.0303   70.2190   -6.3947 N.ar    1  UNL1       -0.2743
     18 C          17.8329   70.6149   -7.4035 C.ar    1  UNL1        0.2626
     19 C          19.1462   71.0572   -7.1142 C.ar    1  UNL1        0.0795
     20 C          19.5646   71.0774   -5.8313 C.ar    1  UNL1        0.0869
     21 O          16.7407   69.8860   -4.2249 O.2     1  UNL1       -0.2464
     22 O          17.4312   70.5918   -8.5535 O.2     1  UNL1       -0.2670
     23 H          16.1297   69.9144   -6.5852 H       1  UNL1        0.1734
     24 O          23.9609   74.5931   -3.3528 O.3     1  UNL1       -0.2703
     25 P          24.9073   75.7269   -3.9946 P.3     1  UNL1        0.2208
     26 O          24.5431   75.9105   -5.5526 O.3     1  UNL1       -0.4371
     27 O          24.6948   77.0072   -3.2848 O.2     1  UNL1       -0.5170
     28 O          26.4486   75.2831   -3.8521 O.3     1  UNL1       -0.2865
     29 C          27.5390   76.1897   -4.0261 C.3     1  UNL1        0.2611
     30 C          28.7189   75.4535   -4.6652 C.3     1  UNL1        0.1582
     31 C          29.1858   74.3399   -3.7227 C.3     1  UNL1        0.1625
     32 C          29.5491   74.9520   -2.3671 C.3     1  UNL1        0.1686
     33 C          28.3368   75.7077   -1.8164 C.3     1  UNL1        0.1760
     34 O          30.3338   73.6945   -4.2784 O.3     1  UNL1       -0.3801
     35 O          30.6431   75.8565   -2.5293 O.3     1  UNL1       -0.3794
     36 O          27.9346   76.7079   -2.7544 O.3     1  UNL1       -0.3263
     37 H          30.6833   72.9764   -3.7331 H       1  UNL1        0.2105
     38 H          30.9268   76.2829   -1.7084 H       1  UNL1        0.2105
     39 C          29.1036   74.9542   -7.0191 C.2     1  UNL1        0.2231
     40 C          28.6720   74.3547   -8.3317 C.3     1  UNL1        0.0946
     41 N          28.2983   74.8703   -5.9418 N.am    1  UNL1       -0.2994
     42 O          30.1769   75.5132   -6.9310 O.2     1  UNL1       -0.2751
     43 H          27.4397   74.4243   -6.0120 H       1  UNL1        0.1496
     44 C          28.7099   76.3724   -0.4900 C.3     1  UNL1        0.1693
     45 O          28.5942   75.4207    0.5698 O.3     1  UNL1       -0.3794
     46 H          28.8161   75.7738    1.4422 H       1  UNL1        0.2105
@<TRIPOS>BOND
     1    29    30    1
     2    30    41    1
     3    30    31    1
     4    31    34    1
     5    31    32    1
     6    32    35    1
     7    32    33    1
     8    33    36    1
     9    33    44    1
    10    39    40    1
    11    39    42    2
    12    39    41   am
    13    41    43    1
    14    29    28    1
    15    34    37    1
    16    35    38    1
    17    29    36    1
    18    44    45    1
    19    45    46    1
    20    15     6    1
    21    15    16   ar
    22    16    21    2
    23    16    17   ar
    24    17    23    1
    25    17    18   ar
    26    18    19   ar
    27    19    20   ar
    28    15    20   ar
    29    18    22    2
    30     6     7    1
    31     6    11    1
    32     7     9    1
    33     7     8    1
    34     8    13    1
    35     9    10    1
    36     9    12    1
    37    10     5    1
    38    10    11    1
    39    12    14    1
    40     5     4    1
    41     4     1    1
    42     1     2    1
    43     1    24    1
    44     1     3    2
    45    24    25    1
    46    28    25    1
    47    25    26    1
    48    25    27    2
@<TRIPOS>MOLECULE
UD2
 46 48 0 0 0
SMALL
GASTEIGER

@<TRIPOS>ATOM
      1 P          20.6351   70.1392   -2.4297 P.3     1  UNL1        0.2189
      2 O          20.1526   68.8180   -3.2125 O.3     1  UNL1       -0.4371
      3 O          19.4532   70.9238   -2.0098 O.2     1  UNL1       -0.5170
      4 O          21.4853   69.7124   -1.1302 O.3     1  UNL1       -0.3112
      5 C          22.4027   70.5927   -0.4782 C.3     1  UNL1        0.1811
      6 C          21.3724   73.4448    1.4559 C.3     1  UNL1        0.2383
      7 C          22.7620   73.8372    0.8928 C.3     1  UNL1        0.1895
      8 O          22.8477   75.2480    0.6834 O.3     1  UNL1       -0.3779
      9 C          22.7936   73.0758   -0.4551 C.3     1  UNL1        0.1713
     10 C          21.7446   71.9607   -0.2823 C.3     1  UNL1        0.1764
     11 O          21.2241   72.0661    1.0524 O.3     1  UNL1       -0.3308
     12 O          22.4277   73.9453   -1.5279 O.3     1  UNL1       -0.3794
     13 H          23.6988   75.5429    0.3322 H       1  UNL1        0.2106
     14 H          23.0217   74.6991   -1.6443 H       1  UNL1        0.2105
     15 N          21.3563   73.5600    2.9159 N.ar    1  UNL1       -0.2551
     16 C          21.9058   72.5891    3.6671 C.ar    1  UNL1        0.3323
     17 N          21.9050   72.6688    5.0109 N.ar    1  UNL1       -0.2743
     18 C          21.3505   73.7322    5.6275 C.ar    1  UNL1        0.2626
     19 C          20.7694   74.7620    4.8491 C.ar    1  UNL1        0.0795
     20 C          20.7881   74.6581    3.5036 C.ar    1  UNL1        0.0869
     21 O          22.4095   71.6246    3.1247 O.2     1  UNL1       -0.2464
     22 O          21.3496   73.8057    6.8437 O.2     1  UNL1       -0.2670
     23 H          22.3045   71.9594    5.5375 H       1  UNL1        0.1734
     24 O          21.5555   71.0336   -3.4024 O.3     1  UNL1       -0.2703
     25 P          21.2525   72.2162   -4.4525 P.3     1  UNL1        0.2208
     26 O          20.6018   73.4685   -3.6766 O.3     1  UNL1       -0.4371
     27 O          22.5148   72.6384   -5.0981 O.2     1  UNL1       -0.5170
     28 O          20.2260   71.6873   -5.5746 O.3     1  UNL1       -0.2865
     29 C          19.2256   72.5172   -6.1676 C.3     1  UNL1        0.2611
     30 C          17.8385   71.9576   -5.8426 C.3     1  UNL1        0.1582
     31 C          17.7054   70.5595   -6.4542 C.3     1  UNL1        0.1625
     32 C          17.9572   70.6474   -7.9619 C.3     1  UNL1        0.1686
     33 C          19.3400   71.2577   -8.2053 C.3     1  UNL1        0.1760
     34 O          16.3874   70.0590   -6.2184 O.3     1  UNL1       -0.3801
     35 O          16.9581   71.4711   -8.5657 O.3     1  UNL1       -0.3794
     36 O          19.4075   72.5432   -7.5849 O.3     1  UNL1       -0.3263
     37 H          16.2324   69.1751   -6.5788 H       1  UNL1        0.2105
     38 H          17.0563   71.5720   -9.5229 H       1  UNL1        0.2105
     39 C          16.4717   72.1257   -3.8323 C.2     1  UNL1        0.2231
     40 C          16.3004   72.0399   -2.3384 C.3     1  UNL1        0.0946
     41 N          17.6728   71.8741   -4.3893 N.am    1  UNL1       -0.2994
     42 O          15.5280   72.4215   -4.5353 O.2     1  UNL1       -0.2751
     43 H          18.4278   71.6386   -3.8276 H       1  UNL1        0.1496
     44 C          19.5750   71.4042   -9.7099 C.3     1  UNL1        0.1693
     45 O          18.7868   70.4406  -10.4118 O.3     1  UNL1       -0.3794
     46 H          18.8860   70.4756  -11.3731 H       1  UNL1        0.2105
@<TRIPOS>BOND
     1    29    30    1
     2    30    41    1
     3    30    31    1
     4    31    34    1
     5    31    32    1
     6    32    35    1
     7    32    33    1
     8    33    36    1
     9    33    44    1
    10    39    40    1
    11    39    42    2
    12    39    41   am
    13    41    43    1
    14    29    28    1
    15    34    37    1
    16    35    38    1
    17    29    36    1
    18    44    45    1
    19    45    46    1
    20    15     6    1
    21    15    16   ar
    22    16    21    2
    23    16    17   ar
    24    17    23    1
    25    17    18   ar
    26    18    19   ar
    27    19    20   ar
    28    15    20   ar
    29    18    22    2
    30     6     7    1
    31     6    11    1
    32     7     9    1
    33     7     8    1
    34     8    13    1
    35     9    10    1
    36     9    12    1
    37    10     5    1
    38    10    11    1
    39    12    14    1
    40     5     4    1
    41     4     1    1
    42     1     2    1
    43     1    24    1
    44     1     3    2
    45    24    25    1
    46    28    25    1
    47    25    26    1
    48    25    27    2
