@<TRIPOS>MOLECULE
*****
 43 45 0 0 0
SMALL
GASTEIGER

@<TRIPOS>ATOM
      1 P          23.0128   71.6474   -2.6236 P.3     1  UNL1        0.2189
      2 O          23.2716   73.1842   -2.1873 O.co2   1  UNL1       -0.4371
      3 O          24.1877   70.9626   -3.2582 O.2     1  UNL1       -0.5170
      4 O          21.6710   71.7201   -3.5248 O.3     1  UNL1       -0.3112
      5 C          20.8463   70.5719   -3.6034 C.3     1  UNL1        0.1811
      6 O          18.9066   71.6248   -4.5555 O.3     1  UNL1       -0.3308
      7 O          17.3389   70.2779   -2.3830 O.3     1  UNL1       -0.3794
      8 O          16.8598   68.6812   -4.5410 O.3     1  UNL1       -0.3779
      9 C          18.4731   69.8011   -3.1074 C.3     1  UNL1        0.1713
     10 C          18.0701   69.4085   -4.5130 C.3     1  UNL1        0.1895
     11 C          19.3998   70.9825   -3.3599 C.3     1  UNL1        0.1764
     12 C          17.9563   70.7599   -5.1975 C.3     1  UNL1        0.2383
     13 H          16.7321   69.5407   -2.2099 H       1  UNL1        0.2105
     14 H          16.9842   67.8291   -4.0933 H       1  UNL1        0.2106
     15 O          16.0828   70.0970   -7.2043 O.2     1  UNL1       -0.2464
     16 O          19.2317   70.5280  -10.5424 O.2     1  UNL1       -0.2670
     17 N          18.2597   70.6915   -6.5990 N.ar    1  UNL1       -0.2551
     18 N          17.6532   70.3113   -8.8648 N.ar    1  UNL1       -0.2743
     19 C          17.2459   70.3489   -7.5248 C.ar    1  UNL1        0.3323
     20 C          19.5477   70.9635   -7.0439 C.ar    1  UNL1        0.0869
     21 C          19.9208   70.9237   -8.3246 C.ar    1  UNL1        0.0795
     22 C          18.9221   70.5732   -9.3556 C.ar    1  UNL1        0.2626
     23 H          16.9652   70.0732   -9.5277 H       1  UNL1        0.1734
     24 O          22.4940   70.9637   -1.2539 O.3     1  UNL1       -0.2703
     25 P          21.6703   71.5789   -0.0062 P.3     1  UNL1        0.2208
     26 O          21.1185   70.2628    0.7577 O.co2   1  UNL1       -0.4371
     27 O          20.6033   72.5602   -0.3966 O.2     1  UNL1       -0.5170
     28 O          22.8017   72.1759    0.9767 O.3     1  UNL1       -0.2858
     29 O          24.5414   71.4190    2.3943 O.3     1  UNL1       -0.3226
     30 O          22.5346   74.0565    4.8609 O.3     1  UNL1       -0.3794
     31 O          21.0528   72.2198    3.1390 O.3     1  UNL1       -0.3775
     32 O          25.0702   74.8212    3.6622 O.3     1  UNL1       -0.3792
     33 C          23.0247   73.5487    3.6200 C.3     1  UNL1        0.1718
     34 C          22.4538   72.1513    3.3776 C.3     1  UNL1        0.1968
     35 C          24.5518   73.4930    3.7019 C.3     1  UNL1        0.1723
     36 C          23.1310   71.4839    2.1798 C.3     1  UNL1        0.2706
     37 C          25.1437   72.7034    2.5380 C.3     1  UNL1        0.1830
     38 H          21.5658   74.1008    4.8323 H       1  UNL1        0.2105
     39 H          20.6167   72.6425    3.8950 H       1  UNL1        0.2106
     40 H          24.7011   75.3345    4.3979 H       1  UNL1        0.2106
     41 O          26.8336   71.0774    2.4925 O.co2   1  UNL1       -0.5466
     42 O          27.4133   73.1600    3.2175 O.co2   1  UNL1       -0.5466
     43 C          26.5782   72.3744    2.7952 C.2     1  UNL1        0.0799
@<TRIPOS>UNITY_ATOM_ATTR
2 1
charge -1
26 1
charge -1
41 1
charge -1
@<TRIPOS>BOND
     1     1     4    1
     2     1    24    1
     3     1     2    1
     4     1     3    2
     5    25    28    1
     6    25    24    1
     7    25    26    1
     8    25    27    2
     9     6    11    1
    10     6    12    1
    11    29    36    1
    12    29    37    1
    13     7     9    1
    14     7    13    1
    15     8    10    1
    16     8    14    1
    17     4     5    1
    18    28    36    1
    19    30    33    1
    20    30    38    1
    21    31    34    1
    22    31    39    1
    23    32    35    1
    24    32    40    1
    25    41    43   ar
    26    15    19    2
    27    42    43   ar
    28    16    22    2
    29    17    12    1
    30    17    19   ar
    31    17    20   ar
    32    18    19   ar
    33    18    22   ar
    34    18    23    1
    35     9    10    1
    36     9    11    1
    37    10    12    1
    38    11     5    1
    39    33    34    1
    40    33    35    1
    41    34    36    1
    42    35    37    1
    43    37    43    1
    44    20    21   ar
    45    21    22   ar
@<TRIPOS>MOLECULE
*****
 43 45 0 0 0
SMALL
GASTEIGER

@<TRIPOS>ATOM
      1 P          21.7983   71.8239   -2.8544 P.3     1  UNL1        0.2189
      2 O          22.2483   73.3655   -3.0538 O.co2   1  UNL1       -0.4371
      3 O          22.8562   70.8087   -3.1737 O.2     1  UNL1       -0.5170
      4 O          20.4296   71.7051   -3.7092 O.3     1  UNL1       -0.3112
      5 C          19.6179   70.5590   -3.5300 C.3     1  UNL1        0.1811
      6 O          17.9070   71.6308   -4.8344 O.3     1  UNL1       -0.3308
      7 O          15.9381   70.2779   -3.0221 O.3     1  UNL1       -0.3794
      8 O          15.8833   68.7000   -5.2455 O.3     1  UNL1       -0.3779
      9 C          17.1899   69.7994   -3.5145 C.3     1  UNL1        0.1713
     10 C          17.0681   69.4195   -4.9750 C.3     1  UNL1        0.1895
     11 C          18.1536   70.9768   -3.5708 C.3     1  UNL1        0.1764
     12 C          17.0967   70.7766   -5.6573 C.3     1  UNL1        0.2383
     13 H          15.3057   69.5432   -2.9773 H       1  UNL1        0.2105
     14 H          15.9136   67.8439   -4.7892 H       1  UNL1        0.2106
     15 O          15.6155   70.3338   -8.0208 O.2     1  UNL1       -0.2464
     16 O          19.3942   70.5659  -10.6497 O.2     1  UNL1       -0.2670
     17 N          17.6682   70.7166   -6.9728 N.ar    1  UNL1       -0.2551
     18 N          17.4991   70.4488   -9.3278 N.ar    1  UNL1       -0.2743
     19 C          16.8359   70.4890   -8.0942 C.ar    1  UNL1        0.3323
     20 C          19.0372   70.8837   -7.1426 C.ar    1  UNL1        0.0869
     21 C          19.6549   70.8429   -8.3248 C.ar    1  UNL1        0.0795
     22 C          18.8578   70.6087   -9.5467 C.ar    1  UNL1        0.2626
     23 H          16.9408   70.2896  -10.1230 H       1  UNL1        0.1734
     24 O          21.2754   71.7934   -1.3252 O.3     1  UNL1       -0.2703
     25 P          22.0162   71.3483    0.0411 P.3     1  UNL1        0.2208
     26 O          23.5412   71.0853   -0.4337 O.co2   1  UNL1       -0.4371
     27 O          21.3756   70.1826    0.7374 O.2     1  UNL1       -0.5170
     28 O          22.0914   72.6965    0.9238 O.3     1  UNL1       -0.2858
     29 O          23.8387   73.5696    2.2633 O.3     1  UNL1       -0.3226
     30 O          20.4885   74.8102    4.3382 O.3     1  UNL1       -0.3794
     31 O          20.6202   72.1178    3.2122 O.3     1  UNL1       -0.3775
     32 O          21.9944   76.7069    2.7302 O.3     1  UNL1       -0.3792
     33 C          21.2503   74.4605    3.1827 C.3     1  UNL1        0.1718
     34 C          21.7238   73.0116    3.3011 C.3     1  UNL1        0.1968
     35 C          22.4498   75.4075    3.1025 C.3     1  UNL1        0.1723
     36 C          22.7291   72.6727    2.1996 C.3     1  UNL1        0.2706
     37 C          23.4667   74.9323    2.0688 C.3     1  UNL1        0.1830
     38 H          19.7207   74.2215    4.4099 H       1  UNL1        0.2105
     39 H          19.9782   72.3273    3.9081 H       1  UNL1        0.2106
     40 H          21.3464   77.0210    3.3800 H       1  UNL1        0.2106
     41 O          24.6872   76.5577    3.2392 O.co2   1  UNL1       -0.5466
     42 O          25.7580   75.4746    1.5423 O.co2   1  UNL1       -0.5466
     43 C          24.7624   75.6594    2.2261 C.2     1  UNL1        0.0799
@<TRIPOS>UNITY_ATOM_ATTR
2 1
charge -1
26 1
charge -1
41 1
charge -1
@<TRIPOS>BOND
     1     1     4    1
     2     1    24    1
     3     1     2    1
     4     1     3    2
     5    25    28    1
     6    25    24    1
     7    25    26    1
     8    25    27    2
     9     6    11    1
    10     6    12    1
    11    29    36    1
    12    29    37    1
    13     7     9    1
    14     7    13    1
    15     8    10    1
    16     8    14    1
    17     4     5    1
    18    28    36    1
    19    30    33    1
    20    30    38    1
    21    31    34    1
    22    31    39    1
    23    32    35    1
    24    32    40    1
    25    41    43   ar
    26    15    19    2
    27    42    43   ar
    28    16    22    2
    29    17    12    1
    30    17    19   ar
    31    17    20   ar
    32    18    19   ar
    33    18    22   ar
    34    18    23    1
    35     9    10    1
    36     9    11    1
    37    10    12    1
    38    11     5    1
    39    33    34    1
    40    33    35    1
    41    34    36    1
    42    35    37    1
    43    37    43    1
    44    20    21   ar
    45    21    22   ar
@<TRIPOS>MOLECULE
*****
 43 45 0 0 0
SMALL
GASTEIGER

@<TRIPOS>ATOM
      1 P          23.1353   71.5614   -2.3694 P.3     1  UNL1        0.2189
      2 O          23.4245   73.1282   -2.0855 O.co2   1  UNL1       -0.4371
      3 O          24.2343   70.8342   -3.0871 O.2     1  UNL1       -0.5170
      4 O          21.6942   71.5594   -3.1050 O.3     1  UNL1       -0.3112
      5 C          21.1523   70.3214   -3.5271 C.3     1  UNL1        0.1811
      6 O          19.0817   69.8285   -4.6440 O.3     1  UNL1       -0.3308
      7 O          19.6830   72.1841   -6.3993 O.3     1  UNL1       -0.3794
      8 O          17.8634   73.2005   -4.6409 O.3     1  UNL1       -0.3779
      9 C          19.9476   72.0031   -5.0080 C.3     1  UNL1        0.1713
     10 C          18.6656   72.1205   -4.2111 C.3     1  UNL1        0.1895
     11 C          20.3272   70.5451   -4.7878 C.3     1  UNL1        0.1764
     12 C          18.0135   70.7715   -4.4622 C.3     1  UNL1        0.2383
     13 H          19.4382   73.1085   -6.5646 H       1  UNL1        0.2105
     14 H          18.3221   74.0363   -4.4590 H       1  UNL1        0.2106
     15 O          18.1698   68.2237   -3.2536 O.2     1  UNL1       -0.2464
     16 O          14.8281   69.2432   -0.2474 O.2     1  UNL1       -0.2670
     17 N          17.1961   70.3447   -3.3619 N.ar    1  UNL1       -0.2551
     18 N          16.5046   68.7336   -1.7581 N.ar    1  UNL1       -0.2743
     19 C          17.3541   69.0438   -2.8283 C.ar    1  UNL1        0.3323
     20 C          16.2527   71.2104   -2.8221 C.ar    1  UNL1        0.0869
     21 C          15.4502   70.9004   -1.8019 C.ar    1  UNL1        0.0795
     22 C          15.5506   69.5604   -1.1873 C.ar    1  UNL1        0.2626
     23 H          16.5946   67.8327   -1.3712 H       1  UNL1        0.1734
     24 O          22.7936   70.9833   -0.8991 O.3     1  UNL1       -0.2703
     25 P          21.7287   71.4748    0.2136 P.3     1  UNL1        0.2208
     26 O          21.4197   70.1248    1.0516 O.co2   1  UNL1       -0.4371
     27 O          20.5100   72.1434   -0.3534 O.2     1  UNL1       -0.5170
     28 O          22.5874   72.3936    1.2241 O.3     1  UNL1       -0.2858
     29 O          24.4744   72.0944    2.6236 O.3     1  UNL1       -0.3226
     30 O          21.9706   74.3096    5.0508 O.3     1  UNL1       -0.3794
     31 O          20.9074   72.1278    3.4248 O.3     1  UNL1       -0.3775
     32 O          24.2528   75.5733    3.7681 O.3     1  UNL1       -0.3792
     33 C          22.5415   73.8780    3.8156 C.3     1  UNL1        0.1718
     34 C          22.2922   72.3808    3.6321 C.3     1  UNL1        0.1968
     35 C          24.0438   74.1656    3.8630 C.3     1  UNL1        0.1723
     36 C          23.0817   71.8367    2.4407 C.3     1  UNL1        0.2706
     37 C          24.7779   73.4848    2.7114 C.3     1  UNL1        0.1830
     38 H          21.0159   74.1368    5.0438 H       1  UNL1        0.2105
     39 H          20.4004   72.4707    4.1769 H       1  UNL1        0.2106
     40 H          23.7906   76.0186    4.4953 H       1  UNL1        0.2106
     41 O          26.7240   74.7628    2.9959 O.co2   1  UNL1       -0.5466
     42 O          26.9480   72.4951    3.0755 O.co2   1  UNL1       -0.5466
     43 C          26.2536   73.4920    2.9449 C.2     1  UNL1        0.0799
@<TRIPOS>UNITY_ATOM_ATTR
2 1
charge -1
26 1
charge -1
41 1
charge -1
@<TRIPOS>BOND
     1     1     4    1
     2     1    24    1
     3     1     2    1
     4     1     3    2
     5    25    28    1
     6    25    24    1
     7    25    26    1
     8    25    27    2
     9     6    11    1
    10     6    12    1
    11    29    36    1
    12    29    37    1
    13     7     9    1
    14     7    13    1
    15     8    10    1
    16     8    14    1
    17     4     5    1
    18    28    36    1
    19    30    33    1
    20    30    38    1
    21    31    34    1
    22    31    39    1
    23    32    35    1
    24    32    40    1
    25    41    43   ar
    26    15    19    2
    27    42    43   ar
    28    16    22    2
    29    17    12    1
    30    17    19   ar
    31    17    20   ar
    32    18    19   ar
    33    18    22   ar
    34    18    23    1
    35     9    10    1
    36     9    11    1
    37    10    12    1
    38    11     5    1
    39    33    34    1
    40    33    35    1
    41    34    36    1
    42    35    37    1
    43    37    43    1
    44    20    21   ar
    45    21    22   ar
@<TRIPOS>MOLECULE
*****
 43 45 0 0 0
SMALL
GASTEIGER

@<TRIPOS>ATOM
      1 P          23.1194   71.6612   -2.6192 P.3     1  UNL1        0.2189
      2 O          23.3649   73.2279   -2.2968 O.co2   1  UNL1       -0.4371
      3 O          24.2845   70.9532   -3.2461 O.2     1  UNL1       -0.5170
      4 O          21.7471   71.6513   -3.4764 O.3     1  UNL1       -0.3112
      5 C          21.6129   72.5667   -4.5481 C.3     1  UNL1        0.1811
      6 O          20.7835   70.5973   -5.6487 O.3     1  UNL1       -0.3308
      7 O          21.3453   72.0262   -8.2243 O.3     1  UNL1       -0.3794
      8 O          18.6514   72.3421   -7.9430 O.3     1  UNL1       -0.3779
      9 C          20.8754   72.5523   -6.9830 C.3     1  UNL1        0.1713
     10 C          19.4233   72.1792   -6.7717 C.3     1  UNL1        0.1895
     11 C          21.5664   71.7923   -5.8591 C.3     1  UNL1        0.1764
     12 C          19.5306   70.7268   -6.3392 C.3     1  UNL1        0.2383
     13 H          20.9177   72.4964   -8.9577 H       1  UNL1        0.2105
     14 H          18.6131   73.2833   -8.1767 H       1  UNL1        0.2106
     15 O          17.0018   69.8047   -7.1946 O.2     1  UNL1       -0.2464
     16 O          15.5300   69.2639   -2.8604 O.2     1  UNL1       -0.2670
     17 N          18.4680   70.3383   -5.4556 N.ar    1  UNL1       -0.2551
     18 N          16.2708   69.5372   -5.0351 N.ar    1  UNL1       -0.2743
     19 C          17.2361   69.8893   -5.9875 C.ar    1  UNL1        0.3323
     20 C          18.6519   70.4022   -4.0797 C.ar    1  UNL1        0.0869
     21 C          17.7224   70.0630   -3.1843 C.ar    1  UNL1        0.0795
     22 C          16.4068   69.5844   -3.6571 C.ar    1  UNL1        0.2626
     23 H          15.4042   69.2236   -5.3814 H       1  UNL1        0.1734
     24 O          22.6588   71.0643   -1.1893 O.3     1  UNL1       -0.2703
     25 P          21.6078   71.6224   -0.0950 P.3     1  UNL1        0.2208
     26 O          21.1207   70.2803    0.6680 O.co2   1  UNL1       -0.4371
     27 O          20.4926   72.4433   -0.6750 O.2     1  UNL1       -0.5170
     28 O          22.5175   72.3988    0.9876 O.3     1  UNL1       -0.2858
     29 O          24.3371   71.8672    2.4073 O.3     1  UNL1       -0.3226
     30 O          21.9305   74.0920    4.9225 O.3     1  UNL1       -0.3794
     31 O          20.7602   72.1095    3.1240 O.3     1  UNL1       -0.3775
     32 O          24.3337   75.2677    3.7852 O.3     1  UNL1       -0.3792
     33 C          22.5041   73.7039    3.6742 C.3     1  UNL1        0.1718
     34 C          22.1531   72.2450    3.3812 C.3     1  UNL1        0.1968
     35 C          24.0213   73.8760    3.7771 C.3     1  UNL1        0.1723
     36 C          22.9353   71.7259    2.1740 C.3     1  UNL1        0.2706
     37 C          24.7373   73.2223    2.5987 C.3     1  UNL1        0.1830
     38 H          20.9664   73.9910    4.8809 H       1  UNL1        0.2105
     39 H          20.2578   72.4372    3.8859 H       1  UNL1        0.2106
     40 H          23.8839   75.6957    4.5305 H       1  UNL1        0.2106
     41 O          26.7595   74.3308    3.0271 O.co2   1  UNL1       -0.5466
     42 O          26.8205   72.0532    2.9370 O.co2   1  UNL1       -0.5466
     43 C          26.2023   73.1048    2.8671 C.2     1  UNL1        0.0799
@<TRIPOS>UNITY_ATOM_ATTR
2 1
charge -1
26 1
charge -1
41 1
charge -1
@<TRIPOS>BOND
     1     1     4    1
     2     1    24    1
     3     1     2    1
     4     1     3    2
     5    25    28    1
     6    25    24    1
     7    25    26    1
     8    25    27    2
     9     6    11    1
    10     6    12    1
    11    29    36    1
    12    29    37    1
    13     7     9    1
    14     7    13    1
    15     8    10    1
    16     8    14    1
    17     4     5    1
    18    28    36    1
    19    30    33    1
    20    30    38    1
    21    31    34    1
    22    31    39    1
    23    32    35    1
    24    32    40    1
    25    41    43   ar
    26    15    19    2
    27    42    43   ar
    28    16    22    2
    29    17    12    1
    30    17    19   ar
    31    17    20   ar
    32    18    19   ar
    33    18    22   ar
    34    18    23    1
    35     9    10    1
    36     9    11    1
    37    10    12    1
    38    11     5    1
    39    33    34    1
    40    33    35    1
    41    34    36    1
    42    35    37    1
    43    37    43    1
    44    20    21   ar
    45    21    22   ar
@<TRIPOS>MOLECULE
*****
 43 45 0 0 0
SMALL
GASTEIGER

@<TRIPOS>ATOM
      1 P          22.6626   71.8757   -2.9432 P.3     1  UNL1        0.2189
      2 O          22.5471   73.4678   -2.6776 O.co2   1  UNL1       -0.4371
      3 O          23.9656   71.4250   -3.5356 O.2     1  UNL1       -0.5170
      4 O          21.3401   71.5293   -3.8087 O.3     1  UNL1       -0.3112
      5 C          20.6284   70.3424   -3.5102 C.3     1  UNL1        0.1811
      6 O          18.6826   71.3951   -4.4501 O.3     1  UNL1       -0.3308
      7 O          17.0979   69.8466   -2.4296 O.3     1  UNL1       -0.3794
      8 O          16.7418   68.3916   -4.7083 O.3     1  UNL1       -0.3779
      9 C          18.2699   69.4602   -3.1477 C.3     1  UNL1        0.1713
     10 C          17.9242   69.1548   -4.5897 C.3     1  UNL1        0.1895
     11 C          19.1615   70.6865   -3.2865 C.3     1  UNL1        0.1764
     12 C          17.7836   70.5468   -5.1818 C.3     1  UNL1        0.2383
     13 H          16.5125   69.0793   -2.3284 H       1  UNL1        0.2105
     14 H          16.8825   67.5146   -4.3171 H       1  UNL1        0.2106
     15 O          15.9804   70.0286   -7.2929 O.2     1  UNL1       -0.2464
     16 O          19.2301   70.7330  -10.4847 O.2     1  UNL1       -0.2670
     17 N          18.1319   70.5879   -6.5739 N.ar    1  UNL1       -0.2551
     18 N          17.6009   70.3789   -8.8806 N.ar    1  UNL1       -0.2743
     19 C          17.1510   70.3113   -7.5554 C.ar    1  UNL1        0.3323
     20 C          19.4311   70.9008   -6.9549 C.ar    1  UNL1        0.0869
     21 C          19.8450   70.9615   -8.2221 C.ar    1  UNL1        0.0795
     22 C          18.8825   70.6852   -9.3086 C.ar    1  UNL1        0.2626
     23 H          16.9364   70.1882   -9.5816 H       1  UNL1        0.1734
     24 O          22.3258   71.2408   -1.4953 O.3     1  UNL1       -0.2703
     25 P          21.4264   71.8006   -0.2741 P.3     1  UNL1        0.2208
     26 O          20.9450   70.4513    0.4795 O.co2   1  UNL1       -0.4371
     27 O          20.3058   72.7050   -0.6988 O.2     1  UNL1       -0.5170
     28 O          22.4854   72.4765    0.7379 O.3     1  UNL1       -0.2858
     29 O          24.1065   73.9349   -0.1863 O.3     1  UNL1       -0.3226
     30 O          25.6463   73.2483    3.5853 O.3     1  UNL1       -0.3794
     31 O          24.4952   71.0566    2.0342 O.3     1  UNL1       -0.3775
     32 O          24.3433   75.7752    2.9790 O.3     1  UNL1       -0.3792
     33 C          24.6199   73.4109    2.6066 C.3     1  UNL1        0.1718
     34 C          24.7797   72.3510    1.5164 C.3     1  UNL1        0.1968
     35 C          24.7541   74.8134    2.0091 C.3     1  UNL1        0.1723
     36 C          23.8458   72.6326    0.3385 C.3     1  UNL1        0.2706
     37 C          23.8859   74.9743    0.7646 C.3     1  UNL1        0.1830
     38 H          25.5809   72.3638    3.9788 H       1  UNL1        0.2105
     39 H          25.0840   70.8714    2.7821 H       1  UNL1        0.2106
     40 H          24.8880   75.6834    3.7763 H       1  UNL1        0.2106
     41 O          25.5885   76.4658    0.1495 O.co2   1  UNL1       -0.5466
     42 O          23.4954   76.8900   -0.6492 O.co2   1  UNL1       -0.5466
     43 C          24.2649   76.2062    0.0090 C.2     1  UNL1        0.0799
@<TRIPOS>UNITY_ATOM_ATTR
2 1
charge -1
26 1
charge -1
41 1
charge -1
@<TRIPOS>BOND
     1     1     4    1
     2     1    24    1
     3     1     2    1
     4     1     3    2
     5    25    28    1
     6    25    24    1
     7    25    26    1
     8    25    27    2
     9     6    11    1
    10     6    12    1
    11    29    36    1
    12    29    37    1
    13     7     9    1
    14     7    13    1
    15     8    10    1
    16     8    14    1
    17     4     5    1
    18    28    36    1
    19    30    33    1
    20    30    38    1
    21    31    34    1
    22    31    39    1
    23    32    35    1
    24    32    40    1
    25    41    43   ar
    26    15    19    2
    27    42    43   ar
    28    16    22    2
    29    17    12    1
    30    17    19   ar
    31    17    20   ar
    32    18    19   ar
    33    18    22   ar
    34    18    23    1
    35     9    10    1
    36     9    11    1
    37    10    12    1
    38    11     5    1
    39    33    34    1
    40    33    35    1
    41    34    36    1
    42    35    37    1
    43    37    43    1
    44    20    21   ar
    45    21    22   ar
@<TRIPOS>MOLECULE
*****
 43 45 0 0 0
SMALL
GASTEIGER

@<TRIPOS>ATOM
      1 P          22.8001   71.5629   -3.2086 P.3     1  UNL1        0.2189
      2 O          22.4115   71.9964   -4.7186 O.co2   1  UNL1       -0.4371
      3 O          24.1595   70.9460   -3.0566 O.2     1  UNL1       -0.5170
      4 O          21.5548   70.6445   -2.7354 O.3     1  UNL1       -0.3112
      5 C          20.6662   70.1505   -3.7208 C.3     1  UNL1        0.1811
      6 O          18.8949   71.4630   -4.6786 O.3     1  UNL1       -0.3308
      7 O          17.1368   70.3118   -2.5397 O.3     1  UNL1       -0.3794
      8 O          16.4751   68.8180   -4.7229 O.3     1  UNL1       -0.3779
      9 C          18.2060   69.6967   -3.2587 C.3     1  UNL1        0.1713
     10 C          17.7709   69.3774   -4.6733 C.3     1  UNL1        0.1895
     11 C          19.2844   70.7471   -3.4865 C.3     1  UNL1        0.1764
     12 C          17.8457   70.7397   -5.3413 C.3     1  UNL1        0.2383
     13 H          16.4354   69.6599   -2.3822 H       1  UNL1        0.2105
     14 H          16.4798   67.9518   -4.2851 H       1  UNL1        0.2106
     15 O          15.9251   70.3481   -7.3746 O.2     1  UNL1       -0.2464
     16 O          19.1414   70.4023  -10.6756 O.2     1  UNL1       -0.2670
     17 N          18.1537   70.6478   -6.7405 N.ar    1  UNL1       -0.2551
     18 N          17.5289   70.3744   -9.0167 N.ar    1  UNL1       -0.2743
     19 C          17.1146   70.4501   -7.6804 C.ar    1  UNL1        0.3323
     20 C          19.4711   70.7547   -7.1691 C.ar    1  UNL1        0.0869
     21 C          19.8505   70.6807   -8.4464 C.ar    1  UNL1        0.0795
     22 C          18.8266   70.4744   -9.4916 C.ar    1  UNL1        0.2626
     23 H          16.8235   70.2350   -9.6892 H       1  UNL1        0.1734
     24 O          22.5830   72.9287   -2.3718 O.3     1  UNL1       -0.2703
     25 P          23.5755   74.1752   -2.0983 P.3     1  UNL1        0.2208
     26 O          22.5587   75.4064   -1.8332 O.co2   1  UNL1       -0.4371
     27 O          24.5718   74.4209   -3.1942 O.2     1  UNL1       -0.5170
     28 O          24.2292   73.8690   -0.6556 O.3     1  UNL1       -0.2858
     29 O          22.4712   73.4333    0.8705 O.3     1  UNL1       -0.3226
     30 O          25.7980   73.0601    3.2915 O.3     1  UNL1       -0.3794
     31 O          25.6265   75.2211    1.3332 O.3     1  UNL1       -0.3775
     32 O          24.3822   70.6898    2.3817 O.3     1  UNL1       -0.3792
     33 C          25.0572   72.9820    2.0737 C.3     1  UNL1        0.1718
     34 C          24.5441   74.3721    1.6968 C.3     1  UNL1        0.1968
     35 C          23.8846   72.0236    2.2941 C.3     1  UNL1        0.1723
     36 C          23.5589   74.2937    0.5298 C.3     1  UNL1        0.2706
     37 C          22.8825   72.0960    1.1456 C.3     1  UNL1        0.1830
     38 H          26.5485   73.6639    3.1755 H       1  UNL1        0.2105
     39 H          26.2558   75.2752    2.0690 H       1  UNL1        0.2106
     40 H          25.0213   70.6301    3.1089 H       1  UNL1        0.2106
     41 O          21.5829   70.1456    1.0537 O.co2   1  UNL1       -0.5466
     42 O          20.6938   71.9374    2.1483 O.co2   1  UNL1       -0.5466
     43 C          21.6022   71.4205    1.5154 C.2     1  UNL1        0.0799
@<TRIPOS>UNITY_ATOM_ATTR
2 1
charge -1
26 1
charge -1
41 1
charge -1
@<TRIPOS>BOND
     1     1     4    1
     2     1    24    1
     3     1     2    1
     4     1     3    2
     5    25    28    1
     6    25    24    1
     7    25    26    1
     8    25    27    2
     9     6    11    1
    10     6    12    1
    11    29    36    1
    12    29    37    1
    13     7     9    1
    14     7    13    1
    15     8    10    1
    16     8    14    1
    17     4     5    1
    18    28    36    1
    19    30    33    1
    20    30    38    1
    21    31    34    1
    22    31    39    1
    23    32    35    1
    24    32    40    1
    25    41    43   ar
    26    15    19    2
    27    42    43   ar
    28    16    22    2
    29    17    12    1
    30    17    19   ar
    31    17    20   ar
    32    18    19   ar
    33    18    22   ar
    34    18    23    1
    35     9    10    1
    36     9    11    1
    37    10    12    1
    38    11     5    1
    39    33    34    1
    40    33    35    1
    41    34    36    1
    42    35    37    1
    43    37    43    1
    44    20    21   ar
    45    21    22   ar
@<TRIPOS>MOLECULE
*****
 43 45 0 0 0
SMALL
GASTEIGER

@<TRIPOS>ATOM
      1 P          22.9788   71.3683   -2.3004 P.3     1  UNL1        0.2189
      2 O          22.6727   72.9453   -2.4956 O.co2   1  UNL1       -0.4371
      3 O          24.1916   70.8638   -3.0260 O.2     1  UNL1       -0.5170
      4 O          21.5807   70.6506   -2.6853 O.3     1  UNL1       -0.3112
      5 C          20.9411   71.0201   -3.8932 C.3     1  UNL1        0.1811
      6 O          18.8734   71.8246   -4.8179 O.3     1  UNL1       -0.3308
      7 O          17.5303   70.4943   -2.4902 O.3     1  UNL1       -0.3794
      8 O          17.1136   68.7157   -4.5148 O.3     1  UNL1       -0.3779
      9 C          18.6731   70.0734   -3.2355 C.3     1  UNL1        0.1713
     10 C          18.2506   69.5499   -4.5918 C.3     1  UNL1        0.1895
     11 C          19.4739   71.3137   -3.6080 C.3     1  UNL1        0.1764
     12 C          17.9824   70.8349   -5.3563 C.3     1  UNL1        0.2383
     13 H          17.0030   69.7188   -2.2408 H       1  UNL1        0.2105
     14 H          17.3357   67.9113   -4.0191 H       1  UNL1        0.2106
     15 O          15.9806   70.3703   -7.2938 O.2     1  UNL1       -0.2464
     16 O          19.0565   70.3256  -10.7261 O.2     1  UNL1       -0.2670
     17 N          18.2323   70.6978   -6.7633 N.ar    1  UNL1       -0.2551
     18 N          17.5146   70.3475   -9.0013 N.ar    1  UNL1       -0.2743
     19 C          17.1560   70.4659   -7.6521 C.ar    1  UNL1        0.3323
     20 C          19.5303   70.7947   -7.2499 C.ar    1  UNL1        0.0869
     21 C          19.8565   70.6798   -8.5387 C.ar    1  UNL1        0.0795
     22 C          18.7910   70.4358   -9.5330 C.ar    1  UNL1        0.2626
     23 H          16.7825   70.1837   -9.6389 H       1  UNL1        0.1734
     24 O          23.0398   71.2066   -0.6933 O.3     1  UNL1       -0.2703
     25 P          21.9110   71.4390    0.4405 P.3     1  UNL1        0.2208
     26 O          21.7190   69.9639    1.0790 O.co2   1  UNL1       -0.4371
     27 O          20.6440   72.0614   -0.0705 O.2     1  UNL1       -0.5170
     28 O          22.6565   72.2873    1.5925 O.3     1  UNL1       -0.2858
     29 O          22.0044   74.0049    3.0871 O.3     1  UNL1       -0.3226
     30 O          25.7795   75.2541    1.9665 O.3     1  UNL1       -0.3794
     31 O          23.9309   74.1648   -0.0160 O.3     1  UNL1       -0.3775
     32 O          25.3547   74.0587    4.5821 O.3     1  UNL1       -0.3792
     33 C          24.7552   74.3045    2.2615 C.3     1  UNL1        0.1718
     34 C          23.5730   74.5165    1.3155 C.3     1  UNL1        0.1968
     35 C          24.3195   74.5147    3.7133 C.3     1  UNL1        0.1723
     36 C          22.3701   73.6762    1.7463 C.3     1  UNL1        0.2706
     37 C          23.0421   73.7419    4.0290 C.3     1  UNL1        0.1830
     38 H          26.0722   75.1396    1.0486 H       1  UNL1        0.2105
     39 H          24.6938   74.6939   -0.2958 H       1  UNL1        0.2106
     40 H          26.1734   74.5426    4.3913 H       1  UNL1        0.2106
     41 O          22.7848   73.3625    6.3293 O.co2   1  UNL1       -0.5466
     42 O          21.7559   75.2007    5.4568 O.co2   1  UNL1       -0.5466
     43 C          22.4483   74.2033    5.3200 C.2     1  UNL1        0.0799
@<TRIPOS>UNITY_ATOM_ATTR
2 1
charge -1
26 1
charge -1
41 1
charge -1
@<TRIPOS>BOND
     1     1     4    1
     2     1    24    1
     3     1     2    1
     4     1     3    2
     5    25    28    1
     6    25    24    1
     7    25    26    1
     8    25    27    2
     9     6    11    1
    10     6    12    1
    11    29    36    1
    12    29    37    1
    13     7     9    1
    14     7    13    1
    15     8    10    1
    16     8    14    1
    17     4     5    1
    18    28    36    1
    19    30    33    1
    20    30    38    1
    21    31    34    1
    22    31    39    1
    23    32    35    1
    24    32    40    1
    25    41    43   ar
    26    15    19    2
    27    42    43   ar
    28    16    22    2
    29    17    12    1
    30    17    19   ar
    31    17    20   ar
    32    18    19   ar
    33    18    22   ar
    34    18    23    1
    35     9    10    1
    36     9    11    1
    37    10    12    1
    38    11     5    1
    39    33    34    1
    40    33    35    1
    41    34    36    1
    42    35    37    1
    43    37    43    1
    44    20    21   ar
    45    21    22   ar
@<TRIPOS>MOLECULE
*****
 43 45 0 0 0
SMALL
GASTEIGER

@<TRIPOS>ATOM
      1 P          21.3894   72.7193   -4.6459 P.3     1  UNL1        0.2189
      2 O          21.2447   74.2917   -4.2916 O.co2   1  UNL1       -0.4371
      3 O          22.2713   72.4131   -5.8207 O.2     1  UNL1       -0.5170
      4 O          19.8598   72.2050   -4.7626 O.3     1  UNL1       -0.3112
      5 C          19.3334   71.4066   -3.7186 C.3     1  UNL1        0.1811
      6 O          17.4642   71.7384   -5.1929 O.3     1  UNL1       -0.3308
      7 O          15.8694   70.1252   -3.2319 O.3     1  UNL1       -0.3794
      8 O          16.4028   68.3139   -5.1993 O.3     1  UNL1       -0.3779
      9 C          17.2325   69.9745   -3.6290 C.3     1  UNL1        0.1713
     10 C          17.3108   69.3805   -5.0194 C.3     1  UNL1        0.1895
     11 C          17.8158   71.3646   -3.8431 C.3     1  UNL1        0.1764
     12 C          16.9851   70.5795   -5.8935 C.3     1  UNL1        0.2383
     13 H          15.4753   69.2500   -3.0892 H       1  UNL1        0.2105
     14 H          16.6531   67.5753   -4.6216 H       1  UNL1        0.2106
     15 O          15.6228   70.7165   -8.3637 O.2     1  UNL1       -0.2464
     16 O          19.5419   70.3102  -10.7554 O.2     1  UNL1       -0.2670
     17 N          17.6248   70.5121   -7.1768 N.ar    1  UNL1       -0.2551
     18 N          17.5759   70.5130   -9.5525 N.ar    1  UNL1       -0.2743
     19 C          16.8488   70.5902   -8.3574 C.ar    1  UNL1        0.3323
     20 C          19.0050   70.3719   -7.2573 C.ar    1  UNL1        0.0869
     21 C          19.6840   70.2999   -8.4038 C.ar    1  UNL1        0.0795
     22 C          18.9481   70.3729   -9.6831 C.ar    1  UNL1        0.2626
     23 H          17.0570   70.5631  -10.3877 H       1  UNL1        0.1734
     24 O          21.8833   72.0763   -3.2475 O.3     1  UNL1       -0.2703
     25 P          23.3494   72.0086   -2.5695 P.3     1  UNL1        0.2208
     26 O          24.0134   73.4261   -2.9818 O.co2   1  UNL1       -0.4371
     27 O          24.1575   70.8079   -2.9685 O.2     1  UNL1       -0.5170
     28 O          23.0737   72.1336   -0.9850 O.3     1  UNL1       -0.2858
     29 O          24.3275   70.9558    0.6429 O.3     1  UNL1       -0.3226
     30 O          20.8448   71.7871    2.7038 O.3     1  UNL1       -0.3794
     31 O          20.7443   70.9116   -0.0815 O.3     1  UNL1       -0.3775
     32 O          23.2622   73.3060    3.2513 O.3     1  UNL1       -0.3792
     33 C          21.8829   72.0198    1.7519 C.3     1  UNL1        0.1718
     34 C          21.9095   70.8790    0.7345 C.3     1  UNL1        0.1968
     35 C          23.2113   72.0894    2.5084 C.3     1  UNL1        0.1723
     36 C          23.1465   70.9723   -0.1599 C.3     1  UNL1        0.2706
     37 C          24.3997   72.0519    1.5520 C.3     1  UNL1        0.1830
     38 H          19.9908   71.7390    2.2459 H       1  UNL1        0.2105
     39 H          19.9555   70.8530    0.4795 H       1  UNL1        0.2106
     40 H          22.5110   73.3425    3.8639 H       1  UNL1        0.2106
     41 O          26.1653   72.9384    2.8163 O.co2   1  UNL1       -0.5466
     42 O          26.1948   70.6932    2.4198 O.co2   1  UNL1       -0.5466
     43 C          25.6697   71.7893    2.2940 C.2     1  UNL1        0.0799
@<TRIPOS>UNITY_ATOM_ATTR
2 1
charge -1
26 1
charge -1
41 1
charge -1
@<TRIPOS>BOND
     1     1     4    1
     2     1    24    1
     3     1     2    1
     4     1     3    2
     5    25    28    1
     6    25    24    1
     7    25    26    1
     8    25    27    2
     9     6    11    1
    10     6    12    1
    11    29    36    1
    12    29    37    1
    13     7     9    1
    14     7    13    1
    15     8    10    1
    16     8    14    1
    17     4     5    1
    18    28    36    1
    19    30    33    1
    20    30    38    1
    21    31    34    1
    22    31    39    1
    23    32    35    1
    24    32    40    1
    25    41    43   ar
    26    15    19    2
    27    42    43   ar
    28    16    22    2
    29    17    12    1
    30    17    19   ar
    31    17    20   ar
    32    18    19   ar
    33    18    22   ar
    34    18    23    1
    35     9    10    1
    36     9    11    1
    37    10    12    1
    38    11     5    1
    39    33    34    1
    40    33    35    1
    41    34    36    1
    42    35    37    1
    43    37    43    1
    44    20    21   ar
    45    21    22   ar
@<TRIPOS>MOLECULE
*****
 43 45 0 0 0
SMALL
GASTEIGER

@<TRIPOS>ATOM
      1 P          22.1233   72.7713   -4.6249 P.3     1  UNL1        0.2189
      2 O          21.6062   74.0850   -5.4159 O.co2   1  UNL1       -0.4371
      3 O          23.5255   72.3471   -4.9500 O.2     1  UNL1       -0.5170
      4 O          20.9725   71.6696   -4.9074 O.3     1  UNL1       -0.3112
      5 C          20.3974   70.9944   -3.8038 C.3     1  UNL1        0.1811
      6 O          18.5090   71.9135   -4.9729 O.3     1  UNL1       -0.3308
      7 O          16.8169   70.6884   -2.8217 O.3     1  UNL1       -0.3794
      8 O          16.5393   68.9193   -4.8782 O.3     1  UNL1       -0.3779
      9 C          18.0133   70.1924   -3.4227 C.3     1  UNL1        0.1713
     10 C          17.7260   69.6826   -4.8191 C.3     1  UNL1        0.1895
     11 C          18.9272   71.3786   -3.6984 C.3     1  UNL1        0.1764
     12 C          17.6306   70.9743   -5.6130 C.3     1  UNL1        0.2383
     13 H          16.2171   69.9485   -2.6363 H       1  UNL1        0.2105
     14 H          16.6506   68.1077   -4.3578 H       1  UNL1        0.2106
     15 O          15.9156   70.1575   -7.7030 O.2     1  UNL1       -0.2464
     16 O          19.3071   70.3742  -10.8166 O.2     1  UNL1       -0.2670
     17 N          18.0393   70.8092   -6.9793 N.ar    1  UNL1       -0.2551
     18 N          17.6066   70.2652   -9.2515 N.ar    1  UNL1       -0.2743
     19 C          17.0991   70.3946   -7.9520 C.ar    1  UNL1        0.3323
     20 C          19.3567   71.0584   -7.3441 C.ar    1  UNL1        0.0869
     21 C          19.8257   70.9308   -8.5869 C.ar    1  UNL1        0.0795
     22 C          18.9085   70.5010   -9.6628 C.ar    1  UNL1        0.2626
     23 H          16.9713   69.9758   -9.9457 H       1  UNL1        0.1734
     24 O          21.8802   73.1617   -3.0753 O.3     1  UNL1       -0.2703
     25 P          22.5008   74.3484   -2.1696 P.3     1  UNL1        0.2208
     26 O          21.4402   75.5557   -2.3647 O.co2   1  UNL1       -0.4371
     27 O          23.9174   74.7083   -2.5127 O.2     1  UNL1       -0.5170
     28 O          22.2842   73.8581   -0.6481 O.3     1  UNL1       -0.2858
     29 O          23.5465   73.6250    1.3423 O.3     1  UNL1       -0.3226
     30 O          21.6121   69.9800    1.1418 O.3     1  UNL1       -0.3794
     31 O          22.7514   71.1861   -1.2627 O.3     1  UNL1       -0.3775
     32 O          20.7132   72.0076    3.0212 O.3     1  UNL1       -0.3792
     33 C          21.7671   71.3856    0.9458 C.3     1  UNL1        0.1718
     34 C          22.9872   71.6475    0.0625 C.3     1  UNL1        0.1968
     35 C          21.9539   72.0367    2.3180 C.3     1  UNL1        0.1723
     36 C          23.3205   73.1394    0.0184 C.3     1  UNL1        0.2706
     37 C          22.4074   73.4879    2.1890 C.3     1  UNL1        0.1830
     38 H          21.4919   69.5449    0.2830 H       1  UNL1        0.2105
     39 H          22.5390   70.2401   -1.2422 H       1  UNL1        0.2106
     40 H          20.4133   71.0894    3.1100 H       1  UNL1        0.2106
     41 O          24.2551   74.0277    3.5292 O.co2   1  UNL1       -0.5466
     42 O          22.1859   74.3713    4.4232 O.co2   1  UNL1       -0.5466
     43 C          22.8995   74.0085    3.5001 C.2     1  UNL1        0.0799
@<TRIPOS>UNITY_ATOM_ATTR
2 1
charge -1
26 1
charge -1
41 1
charge -1
@<TRIPOS>BOND
     1     1     4    1
     2     1    24    1
     3     1     2    1
     4     1     3    2
     5    25    28    1
     6    25    24    1
     7    25    26    1
     8    25    27    2
     9     6    11    1
    10     6    12    1
    11    29    36    1
    12    29    37    1
    13     7     9    1
    14     7    13    1
    15     8    10    1
    16     8    14    1
    17     4     5    1
    18    28    36    1
    19    30    33    1
    20    30    38    1
    21    31    34    1
    22    31    39    1
    23    32    35    1
    24    32    40    1
    25    41    43   ar
    26    15    19    2
    27    42    43   ar
    28    16    22    2
    29    17    12    1
    30    17    19   ar
    31    17    20   ar
    32    18    19   ar
    33    18    22   ar
    34    18    23    1
    35     9    10    1
    36     9    11    1
    37    10    12    1
    38    11     5    1
    39    33    34    1
    40    33    35    1
    41    34    36    1
    42    35    37    1
    43    37    43    1
    44    20    21   ar
    45    21    22   ar
@<TRIPOS>MOLECULE
*****
 43 45 0 0 0
SMALL
GASTEIGER

@<TRIPOS>ATOM
      1 P          20.8054   73.2629   -3.4080 P.3     1  UNL1        0.2189
      2 O          19.9180   74.5893   -3.1399 O.co2   1  UNL1       -0.4371
      3 O          22.1708   73.5182   -3.9757 O.2     1  UNL1       -0.5170
      4 O          19.8380   72.3220   -4.3006 O.3     1  UNL1       -0.3112
      5 C          19.1843   71.2349   -3.6718 C.3     1  UNL1        0.1811
      6 O          17.4403   71.8213   -5.2186 O.3     1  UNL1       -0.3308
      7 O          15.5710   70.3801   -3.3692 O.3     1  UNL1       -0.3794
      8 O          15.9707   68.5538   -5.3544 O.3     1  UNL1       -0.3779
      9 C          16.9226   70.0704   -3.7095 C.3     1  UNL1        0.1713
     10 C          16.9927   69.4972   -5.1090 C.3     1  UNL1        0.1895
     11 C          17.6803   71.3820   -3.8641 C.3     1  UNL1        0.1764
     12 C          16.8566   70.7433   -5.9674 C.3     1  UNL1        0.2383
     13 H          15.0668   69.5574   -3.2652 H       1  UNL1        0.2105
     14 H          16.1019   67.7794   -4.7843 H       1  UNL1        0.2106
     15 O          15.5765   70.6711   -8.4838 O.2     1  UNL1       -0.2464
     16 O          19.5886   70.2739  -10.7175 O.2     1  UNL1       -0.2670
     17 N          17.5425   70.6216   -7.2226 N.ar    1  UNL1       -0.2551
     18 N          17.5759   70.4723   -9.5938 N.ar    1  UNL1       -0.2743
     19 C          16.8054   70.5947   -8.4300 C.ar    1  UNL1        0.3323
     20 C          18.9290   70.5322   -7.2495 C.ar    1  UNL1        0.0869
     21 C          19.6495   70.4160   -8.3667 C.ar    1  UNL1        0.0795
     22 C          18.9561   70.3795   -9.6710 C.ar    1  UNL1        0.2626
     23 H          17.0847   70.4493  -10.4468 H       1  UNL1        0.1734
     24 O          20.8014   72.5266   -1.9690 O.3     1  UNL1       -0.2703
     25 P          21.8809   71.5415   -1.2777 P.3     1  UNL1        0.2208
     26 O          22.6063   70.8409   -2.5439 O.co2   1  UNL1       -0.4371
     27 O          21.2904   70.5761   -0.2912 O.2     1  UNL1       -0.5170
     28 O          22.9994   72.5276   -0.6620 O.3     1  UNL1       -0.2858
     29 O          21.9173   73.5083    1.2025 O.3     1  UNL1       -0.3226
     30 O          25.7657   74.9554    1.6070 O.3     1  UNL1       -0.3794
     31 O          24.4932   74.8463   -1.0204 O.3     1  UNL1       -0.3775
     32 O          24.8237   72.8130    3.3313 O.3     1  UNL1       -0.3792
     33 C          24.7608   74.0098    1.2412 C.3     1  UNL1        0.1718
     34 C          23.8176   74.6368    0.2143 C.3     1  UNL1        0.1968
     35 C          23.9905   73.6251    2.5063 C.3     1  UNL1        0.1723
     36 C          22.6012   73.7424   -0.0291 C.3     1  UNL1        0.2706
     37 C          22.7243   72.8421    2.1711 C.3     1  UNL1        0.1830
     38 H          26.2683   75.2147    0.8187 H       1  UNL1        0.2105
     39 H          25.2663   75.4129   -0.8733 H       1  UNL1        0.2106
     40 H          25.6332   73.2996    3.5518 H       1  UNL1        0.2106
     41 O          20.5802   72.3584    2.9899 O.co2   1  UNL1       -0.5466
     42 O          22.1506   73.0117    4.5085 O.co2   1  UNL1       -0.5466
     43 C          21.8221   72.7586    3.3591 C.2     1  UNL1        0.0799
@<TRIPOS>UNITY_ATOM_ATTR
2 1
charge -1
26 1
charge -1
41 1
charge -1
@<TRIPOS>BOND
     1     1     4    1
     2     1    24    1
     3     1     2    1
     4     1     3    2
     5    25    28    1
     6    25    24    1
     7    25    26    1
     8    25    27    2
     9     6    11    1
    10     6    12    1
    11    29    36    1
    12    29    37    1
    13     7     9    1
    14     7    13    1
    15     8    10    1
    16     8    14    1
    17     4     5    1
    18    28    36    1
    19    30    33    1
    20    30    38    1
    21    31    34    1
    22    31    39    1
    23    32    35    1
    24    32    40    1
    25    41    43   ar
    26    15    19    2
    27    42    43   ar
    28    16    22    2
    29    17    12    1
    30    17    19   ar
    31    17    20   ar
    32    18    19   ar
    33    18    22   ar
    34    18    23    1
    35     9    10    1
    36     9    11    1
    37    10    12    1
    38    11     5    1
    39    33    34    1
    40    33    35    1
    41    34    36    1
    42    35    37    1
    43    37    43    1
    44    20    21   ar
    45    21    22   ar
@<TRIPOS>MOLECULE
*****
 43 45 0 0 0
SMALL
GASTEIGER

@<TRIPOS>ATOM
      1 P          23.1170   72.4409   -3.5772 P.3     1  UNL1        0.2189
      2 O          23.2125   70.9060   -3.0733 O.co2   1  UNL1       -0.4371
      3 O          24.2988   72.9235   -4.3661 O.2     1  UNL1       -0.5170
      4 O          22.7849   73.2724   -2.2295 O.3     1  UNL1       -0.3112
      5 C          21.7897   74.2779   -2.2834 C.3     1  UNL1        0.1811
      6 O          20.9925   72.6591   -0.6955 O.3     1  UNL1       -0.3308
      7 O          18.9701   74.7210    0.1107 O.3     1  UNL1       -0.3794
      8 O          20.8456   74.9241    2.0798 O.3     1  UNL1       -0.3779
      9 C          20.3274   74.8971   -0.2957 C.3     1  UNL1        0.1713
     10 C          21.2661   74.4667    0.8115 C.3     1  UNL1        0.1895
     11 C          20.6283   73.8753   -1.3837 C.3     1  UNL1        0.1764
     12 C          21.2221   72.9529    0.6917 C.3     1  UNL1        0.2383
     13 H          18.7544   75.3630    0.8056 H       1  UNL1        0.2105
     14 H          20.8919   75.8932    2.1056 H       1  UNL1        0.2106
     15 O          21.5628   70.1741    1.0637 O.2     1  UNL1       -0.2464
     16 O          25.9809   70.6926    2.2705 O.2     1  UNL1       -0.2670
     17 N          22.4508   72.3347    1.1027 N.ar    1  UNL1       -0.2551
     18 N          23.7627   70.4351    1.6654 N.ar    1  UNL1       -0.2743
     19 C          22.5160   70.9301    1.2605 C.ar    1  UNL1        0.3323
     20 C          23.5741   73.1166    1.3432 C.ar    1  UNL1        0.0869
     21 C          24.7555   72.6303    1.7285 C.ar    1  UNL1        0.0795
     22 C          24.9080   71.1728    1.9173 C.ar    1  UNL1        0.2626
     23 H          23.8320   69.4601    1.7839 H       1  UNL1        0.1734
     24 O          21.7138   72.4729   -4.3790 O.3     1  UNL1       -0.2703
     25 P          21.3708   72.8934   -5.9019 P.3     1  UNL1        0.2208
     26 O          22.4116   72.0109   -6.7726 O.co2   1  UNL1       -0.4371
     27 O          21.4419   74.3700   -6.1639 O.2     1  UNL1       -0.5170
     28 O          19.9298   72.2301   -6.1951 O.3     1  UNL1       -0.2858
     29 O          19.0211   70.1539   -5.5074 O.3     1  UNL1       -0.3226
     30 O          17.2831   70.6427   -9.2233 O.3     1  UNL1       -0.3794
     31 O          20.1004   71.2947   -8.8089 O.3     1  UNL1       -0.3775
     32 O          15.7239   71.0963   -6.8121 O.3     1  UNL1       -0.3792
     33 C          17.8332   71.0665   -7.9760 C.3     1  UNL1        0.1718
     34 C          19.2854   70.5997   -7.8722 C.3     1  UNL1        0.1968
     35 C          16.9942   70.4492   -6.8549 C.3     1  UNL1        0.1723
     36 C          19.8355   70.8324   -6.4644 C.3     1  UNL1        0.2706
     37 C          17.6714   70.6134   -5.4973 C.3     1  UNL1        0.1830
     38 H          17.8002   71.0228   -9.9509 H       1  UNL1        0.2105
     39 H          19.7569   71.1517   -9.7044 H       1  UNL1        0.2106
     40 H          15.2824   70.9993   -7.6703 H       1  UNL1        0.2106
     41 O          16.0430   70.4064   -3.8219 O.co2   1  UNL1       -0.5466
     42 O          17.3343   68.5763   -4.2491 O.co2   1  UNL1       -0.5466
     43 C          17.0263   69.7373   -4.4733 C.2     1  UNL1        0.0799
@<TRIPOS>UNITY_ATOM_ATTR
2 1
charge -1
26 1
charge -1
41 1
charge -1
@<TRIPOS>BOND
     1     1     4    1
     2     1    24    1
     3     1     2    1
     4     1     3    2
     5    25    28    1
     6    25    24    1
     7    25    26    1
     8    25    27    2
     9     6    11    1
    10     6    12    1
    11    29    36    1
    12    29    37    1
    13     7     9    1
    14     7    13    1
    15     8    10    1
    16     8    14    1
    17     4     5    1
    18    28    36    1
    19    30    33    1
    20    30    38    1
    21    31    34    1
    22    31    39    1
    23    32    35    1
    24    32    40    1
    25    41    43   ar
    26    15    19    2
    27    42    43   ar
    28    16    22    2
    29    17    12    1
    30    17    19   ar
    31    17    20   ar
    32    18    19   ar
    33    18    22   ar
    34    18    23    1
    35     9    10    1
    36     9    11    1
    37    10    12    1
    38    11     5    1
    39    33    34    1
    40    33    35    1
    41    34    36    1
    42    35    37    1
    43    37    43    1
    44    20    21   ar
    45    21    22   ar
@<TRIPOS>MOLECULE
*****
 43 45 0 0 0
SMALL
GASTEIGER

@<TRIPOS>ATOM
      1 P          23.1602   71.6111   -2.6133 P.3     1  UNL1        0.2189
      2 O          23.3019   73.1927   -2.3014 O.co2   1  UNL1       -0.4371
      3 O          24.3668   70.9789   -3.2429 O.2     1  UNL1       -0.5170
      4 O          21.7872   71.5040   -3.4625 O.3     1  UNL1       -0.3112
      5 C          21.5122   72.4988   -4.4317 C.3     1  UNL1        0.1811
      6 O          20.5511   70.6420   -5.6176 O.3     1  UNL1       -0.3308
      7 O          20.9570   72.2623   -8.1078 O.3     1  UNL1       -0.3794
      8 O          18.3009   72.6096   -7.5973 O.3     1  UNL1       -0.3779
      9 C          20.5952   72.6960   -6.7965 C.3     1  UNL1        0.1713
     10 C          19.1535   72.3370   -6.5049 C.3     1  UNL1        0.1895
     11 C          21.3476   71.8338   -5.7922 C.3     1  UNL1        0.1764
     12 C          19.2541   70.8525   -6.1979 C.3     1  UNL1        0.2383
     13 H          20.4886   72.7988   -8.7669 H       1  UNL1        0.2105
     14 H          18.2704   73.5672   -7.7524 H       1  UNL1        0.2106
     15 O          16.6990   69.9050   -6.9395 O.2     1  UNL1       -0.2464
     16 O          15.4838   69.2038   -2.5491 O.2     1  UNL1       -0.2670
     17 N          18.2504   70.4158   -5.2690 N.ar    1  UNL1       -0.2551
     18 N          16.0958   69.5576   -4.7520 N.ar    1  UNL1       -0.2743
     19 C          16.9992   69.9580   -5.7453 C.ar    1  UNL1        0.3323
     20 C          18.5102   70.4420   -3.9042 C.ar    1  UNL1        0.0869
     21 C          17.6391   70.0570   -2.9694 C.ar    1  UNL1        0.0795
     22 C          16.3082   69.5660   -3.3830 C.ar    1  UNL1        0.2626
     23 H          15.2172   69.2368   -5.0593 H       1  UNL1        0.1734
     24 O          22.7485   70.9935   -1.1773 O.3     1  UNL1       -0.2703
     25 P          21.8712   71.6116    0.0318 P.3     1  UNL1        0.2208
     26 O          21.6107   70.3337    0.9906 O.co2   1  UNL1       -0.4371
     27 O          20.6222   72.3169   -0.4117 O.2     1  UNL1       -0.5170
     28 O          22.9048   72.5356    0.8567 O.3     1  UNL1       -0.2858
     29 O          21.9629   74.2016    2.2518 O.3     1  UNL1       -0.3226
     30 O          25.9359   75.3307    2.1585 O.3     1  UNL1       -0.3794
     31 O          24.5940   74.4328   -0.2761 O.3     1  UNL1       -0.3775
     32 O          24.8457   74.0221    4.5144 O.3     1  UNL1       -0.3792
     33 C          24.8403   74.4157    2.1374 C.3     1  UNL1        0.1718
     34 C          23.9329   74.7311    0.9481 C.3     1  UNL1        0.1968
     35 C          24.0697   74.5702    3.4505 C.3     1  UNL1        0.1723
     36 C          22.6345   73.9264    1.0219 C.3     1  UNL1        0.2706
     37 C          22.7296   73.8421    3.3990 C.3     1  UNL1        0.1830
     38 H          26.4403   75.2505    1.3337 H       1  UNL1        0.2105
     39 H          25.4189   74.9398   -0.3295 H       1  UNL1        0.2106
     40 H          25.7015   74.4768    4.5580 H       1  UNL1        0.2106
     41 O          21.3195   75.4870    4.2975 O.co2   1  UNL1       -0.5466
     42 O          21.6397   73.6008    5.5380 O.co2   1  UNL1       -0.5466
     43 C          21.8533   74.2630    4.5335 C.2     1  UNL1        0.0799
@<TRIPOS>UNITY_ATOM_ATTR
2 1
charge -1
26 1
charge -1
41 1
charge -1
@<TRIPOS>BOND
     1     1     4    1
     2     1    24    1
     3     1     2    1
     4     1     3    2
     5    25    28    1
     6    25    24    1
     7    25    26    1
     8    25    27    2
     9     6    11    1
    10     6    12    1
    11    29    36    1
    12    29    37    1
    13     7     9    1
    14     7    13    1
    15     8    10    1
    16     8    14    1
    17     4     5    1
    18    28    36    1
    19    30    33    1
    20    30    38    1
    21    31    34    1
    22    31    39    1
    23    32    35    1
    24    32    40    1
    25    41    43   ar
    26    15    19    2
    27    42    43   ar
    28    16    22    2
    29    17    12    1
    30    17    19   ar
    31    17    20   ar
    32    18    19   ar
    33    18    22   ar
    34    18    23    1
    35     9    10    1
    36     9    11    1
    37    10    12    1
    38    11     5    1
    39    33    34    1
    40    33    35    1
    41    34    36    1
    42    35    37    1
    43    37    43    1
    44    20    21   ar
    45    21    22   ar
@<TRIPOS>MOLECULE
*****
 43 45 0 0 0
SMALL
GASTEIGER

@<TRIPOS>ATOM
      1 P          21.9375   72.7219   -5.5296 P.3     1  UNL1        0.2189
      2 O          21.7247   74.3245   -5.6035 O.co2   1  UNL1       -0.4371
      3 O          23.2965   72.2840   -5.0678 O.2     1  UNL1       -0.5170
      4 O          21.4927   72.2029   -6.9961 O.3     1  UNL1       -0.3112
      5 C          20.1284   72.2986   -7.3621 C.3     1  UNL1        0.1811
      6 O          19.0935   70.2034   -6.7988 O.3     1  UNL1       -0.3308
      7 O          18.5814   69.8795   -9.7355 O.3     1  UNL1       -0.3794
      8 O          16.1589   70.7068   -8.7959 O.3     1  UNL1       -0.3779
      9 C          18.5596   71.0647   -8.9398 C.3     1  UNL1        0.1713
     10 C          17.3129   71.0968   -8.0813 C.3     1  UNL1        0.1895
     11 C          19.6623   70.9502   -7.8961 C.3     1  UNL1        0.1764
     12 C          17.6697   70.1236   -6.9706 C.3     1  UNL1        0.2383
     13 H          17.8853   69.9294  -10.4097 H       1  UNL1        0.2105
     14 H          15.9736   71.3583   -9.4911 H       1  UNL1        0.2106
     15 O          16.5361   68.2277   -5.2108 O.2     1  UNL1       -0.2464
     16 O          15.2421   71.4969   -2.2306 O.2     1  UNL1       -0.2670
     17 N          17.0302   70.4518   -5.7280 N.ar    1  UNL1       -0.2551
     18 N          15.8918   69.8579   -3.7286 N.ar    1  UNL1       -0.2743
     19 C          16.4930   69.4240   -4.9175 C.ar    1  UNL1        0.3323
     20 C          16.9415   71.7781   -5.3227 C.ar    1  UNL1        0.0869
     21 C          16.3656   72.1762   -4.1867 C.ar    1  UNL1        0.0795
     22 C          15.7787   71.1649   -3.2832 C.ar    1  UNL1        0.2626
     23 H          15.5088   69.1605   -3.1488 H       1  UNL1        0.1734
     24 O          20.7174   72.2369   -4.5869 O.3     1  UNL1       -0.2703
     25 P          20.7133   71.4095   -3.1979 P.3     1  UNL1        0.2208
     26 O          21.4132   70.0067   -3.6010 O.co2   1  UNL1       -0.4371
     27 O          19.3568   71.2661   -2.5706 O.2     1  UNL1       -0.5170
     28 O          21.8030   72.1573   -2.2729 O.3     1  UNL1       -0.2858
     29 O          21.2034   72.6712   -0.0401 O.3     1  UNL1       -0.3226
     30 O          24.5708   75.0064   -0.5649 O.3     1  UNL1       -0.3794
     31 O          22.5671   74.8004   -2.6808 O.3     1  UNL1       -0.3775
     32 O          24.7217   72.5577    0.9947 O.3     1  UNL1       -0.3792
     33 C          23.7281   73.8713   -0.7638 C.3     1  UNL1        0.1718
     34 C          22.3912   74.3233   -1.3519 C.3     1  UNL1        0.1968
     35 C          23.5123   73.1989    0.5938 C.3     1  UNL1        0.1723
     36 C          21.3826   73.1738   -1.3647 C.3     1  UNL1        0.2706
     37 C          22.4042   72.1520    0.5271 C.3     1  UNL1        0.1830
     38 H          24.7219   75.4499   -1.4145 H       1  UNL1        0.2105
     39 H          23.2061   75.5298   -2.6802 H       1  UNL1        0.2106
     40 H          25.4352   73.2132    1.0409 H       1  UNL1        0.2106
     41 O          20.6591   71.9989    2.0868 O.co2   1  UNL1       -0.5466
     42 O          22.7085   71.2436    2.7415 O.co2   1  UNL1       -0.5466
     43 C          21.9775   71.7429    1.8993 C.2     1  UNL1        0.0799
@<TRIPOS>UNITY_ATOM_ATTR
2 1
charge -1
26 1
charge -1
41 1
charge -1
@<TRIPOS>BOND
     1     1     4    1
     2     1    24    1
     3     1     2    1
     4     1     3    2
     5    25    28    1
     6    25    24    1
     7    25    26    1
     8    25    27    2
     9     6    11    1
    10     6    12    1
    11    29    36    1
    12    29    37    1
    13     7     9    1
    14     7    13    1
    15     8    10    1
    16     8    14    1
    17     4     5    1
    18    28    36    1
    19    30    33    1
    20    30    38    1
    21    31    34    1
    22    31    39    1
    23    32    35    1
    24    32    40    1
    25    41    43   ar
    26    15    19    2
    27    42    43   ar
    28    16    22    2
    29    17    12    1
    30    17    19   ar
    31    17    20   ar
    32    18    19   ar
    33    18    22   ar
    34    18    23    1
    35     9    10    1
    36     9    11    1
    37    10    12    1
    38    11     5    1
    39    33    34    1
    40    33    35    1
    41    34    36    1
    42    35    37    1
    43    37    43    1
    44    20    21   ar
    45    21    22   ar
@<TRIPOS>MOLECULE
*****
 43 45 0 0 0
SMALL
GASTEIGER

@<TRIPOS>ATOM
      1 P          23.4125   72.3207   -3.4673 P.3     1  UNL1        0.2189
      2 O          24.0454   70.8529   -3.2146 O.co2   1  UNL1       -0.4371
      3 O          24.3753   73.3436   -3.9949 O.2     1  UNL1       -0.5170
      4 O          22.7017   72.6849   -2.0601 O.3     1  UNL1       -0.3112
      5 C          23.5047   72.7588   -0.8963 C.3     1  UNL1        0.1811
      6 O          24.5145   71.2690    0.6970 O.3     1  UNL1       -0.3308
      7 O          21.7450   70.2409    1.2114 O.3     1  UNL1       -0.3794
      8 O          22.1629   71.9112    3.3260 O.3     1  UNL1       -0.3779
      9 C          22.1755   71.5704    0.9185 C.3     1  UNL1        0.1713
     10 C          22.8576   72.1783    2.1257 C.3     1  UNL1        0.1895
     11 C          23.3187   71.4840   -0.0835 C.3     1  UNL1        0.1764
     12 C          24.2247   71.5172    2.0818 C.3     1  UNL1        0.2383
     13 H          21.0148   70.2704    1.8498 H       1  UNL1        0.2105
     14 H          21.2995   72.3539    3.3052 H       1  UNL1        0.2106
     15 O          26.9047   70.7071    2.4531 O.2     1  UNL1       -0.2464
     16 O          28.0919   74.8028    4.2022 O.2     1  UNL1       -0.2670
     17 N          25.2549   72.3517    2.6321 N.ar    1  UNL1       -0.2551
     18 N          27.4932   72.7475    3.3248 N.ar    1  UNL1       -0.2743
     19 C          26.5693   71.8481    2.7766 C.ar    1  UNL1        0.3323
     20 C          24.9599   73.6530    3.0204 C.ar    1  UNL1        0.0869
     21 C          25.8513   74.4985    3.5413 C.ar    1  UNL1        0.0795
     22 C          27.2471   74.0504    3.7265 C.ar    1  UNL1        0.2626
     23 H          28.4145   72.4188    3.4370 H       1  UNL1        0.1734
     24 O          22.1580   72.0126   -4.4389 O.3     1  UNL1       -0.2703
     25 P          21.5262   72.8643   -5.6592 P.3     1  UNL1        0.2208
     26 O          22.4629   72.4603   -6.9161 O.co2   1  UNL1       -0.4371
     27 O          21.4414   74.3407   -5.4006 O.2     1  UNL1       -0.5170
     28 O          20.1093   72.1553   -5.9628 O.3     1  UNL1       -0.2858
     29 O          19.3652   69.9760   -5.4095 O.3     1  UNL1       -0.3226
     30 O          17.3500   70.6797   -8.9467 O.3     1  UNL1       -0.3794
     31 O          20.1495   71.4627   -8.6563 O.3     1  UNL1       -0.3775
     32 O          15.9390   70.8268   -6.4094 O.3     1  UNL1       -0.3792
     33 C          17.9612   71.0261   -7.7040 C.3     1  UNL1        0.1718
     34 C          19.4404   70.6409   -7.7362 C.3     1  UNL1        0.1968
     35 C          17.2368   70.2639   -6.5921 C.3     1  UNL1        0.1723
     36 C          20.0731   70.7832   -6.3512 C.3     1  UNL1        0.2706
     37 C          17.9963   70.3503   -5.2714 C.3     1  UNL1        0.1830
     38 H          17.7940   71.1523   -9.6684 H       1  UNL1        0.2105
     39 H          19.7532   71.3775   -9.5372 H       1  UNL1        0.2106
     40 H          15.4452   70.7782   -7.2428 H       1  UNL1        0.2106
     41 O          18.4779   68.8580   -3.5271 O.co2   1  UNL1       -0.5466
     42 O          16.3011   69.0198   -4.1862 O.co2   1  UNL1       -0.5466
     43 C          17.4725   69.3510   -4.2919 C.2     1  UNL1        0.0799
@<TRIPOS>UNITY_ATOM_ATTR
2 1
charge -1
26 1
charge -1
41 1
charge -1
@<TRIPOS>BOND
     1     1     4    1
     2     1    24    1
     3     1     2    1
     4     1     3    2
     5    25    28    1
     6    25    24    1
     7    25    26    1
     8    25    27    2
     9     6    11    1
    10     6    12    1
    11    29    36    1
    12    29    37    1
    13     7     9    1
    14     7    13    1
    15     8    10    1
    16     8    14    1
    17     4     5    1
    18    28    36    1
    19    30    33    1
    20    30    38    1
    21    31    34    1
    22    31    39    1
    23    32    35    1
    24    32    40    1
    25    41    43   ar
    26    15    19    2
    27    42    43   ar
    28    16    22    2
    29    17    12    1
    30    17    19   ar
    31    17    20   ar
    32    18    19   ar
    33    18    22   ar
    34    18    23    1
    35     9    10    1
    36     9    11    1
    37    10    12    1
    38    11     5    1
    39    33    34    1
    40    33    35    1
    41    34    36    1
    42    35    37    1
    43    37    43    1
    44    20    21   ar
    45    21    22   ar
@<TRIPOS>MOLECULE
*****
 43 45 0 0 0
SMALL
GASTEIGER

@<TRIPOS>ATOM
      1 P          21.8416   72.4299   -5.6573 P.3     1  UNL1        0.2189
      2 O          21.1716   73.8367   -5.2206 O.co2   1  UNL1       -0.4371
      3 O          23.0543   72.5505   -6.5329 O.2     1  UNL1       -0.5170
      4 O          20.6075   71.5880   -6.2785 O.3     1  UNL1       -0.3112
      5 C          20.1057   71.9614   -7.5487 C.3     1  UNL1        0.1811
      6 O          18.8646   69.9424   -7.1475 O.3     1  UNL1       -0.3308
      7 O          18.1103   70.0504  -10.0477 O.3     1  UNL1       -0.3794
      8 O          15.8798   71.0211   -8.8153 O.3     1  UNL1       -0.3779
      9 C          18.2901   71.1210   -9.1202 C.3     1  UNL1        0.1713
     10 C          17.1206   71.1853   -8.1609 C.3     1  UNL1        0.1895
     11 C          19.4415   70.7523   -8.1947 C.3     1  UNL1        0.1764
     12 C          17.4331   70.0460   -7.2058 C.3     1  UNL1        0.2383
     13 H          17.3796   70.2631  -10.6498 H       1  UNL1        0.2105
     14 H          15.7270   71.7716   -9.4115 H       1  UNL1        0.2106
     15 O          16.3485   68.0502   -5.5273 O.2     1  UNL1       -0.2464
     16 O          15.5258   71.0789   -2.1518 O.2     1  UNL1       -0.2670
     17 N          16.9282   70.2854   -5.8834 N.ar    1  UNL1       -0.2551
     18 N          15.9389   69.5608   -3.8481 N.ar    1  UNL1       -0.2743
     19 C          16.4042   69.2132   -5.1231 C.ar    1  UNL1        0.3323
     20 C          16.9564   71.5690   -5.3520 C.ar    1  UNL1        0.0869
     21 C          16.5093   71.8848   -4.1350 C.ar    1  UNL1        0.0795
     22 C          15.9453   70.8228   -3.2763 C.ar    1  UNL1        0.2626
     23 H          15.5676   68.8314   -3.3008 H       1  UNL1        0.1734
     24 O          22.1043   71.6977   -4.2404 O.3     1  UNL1       -0.2703
     25 P          23.2750   71.8973   -3.1434 P.3     1  UNL1        0.2208
     26 O          23.9493   73.3045   -3.5740 O.co2   1  UNL1       -0.4371
     27 O          24.2397   70.7502   -3.0567 O.2     1  UNL1       -0.5170
     28 O          22.4963   72.2227   -1.7685 O.3     1  UNL1       -0.2858
     29 O          23.1760   70.7665   -0.0288 O.3     1  UNL1       -0.3226
     30 O          20.1285   72.8826    1.7886 O.3     1  UNL1       -0.3794
     31 O          19.8470   71.9519   -0.9662 O.3     1  UNL1       -0.3775
     32 O          22.9012   73.4769    2.4290 O.3     1  UNL1       -0.3792
     33 C          21.2227   72.6827    0.8937 C.3     1  UNL1        0.1718
     34 C          20.8871   71.5535   -0.0808 C.3     1  UNL1        0.1968
     35 C          22.4541   72.3190    1.7263 C.3     1  UNL1        0.1723
     36 C          22.1149   71.1562   -0.9015 C.3     1  UNL1        0.2706
     37 C          23.5928   71.8133    0.8452 C.3     1  UNL1        0.1830
     38 H          19.3344   73.1149    1.2819 H       1  UNL1        0.2105
     39 H          19.0648   72.2057   -0.4522 H       1  UNL1        0.2106
     40 H          22.1856   73.8089    2.9935 H       1  UNL1        0.2106
     41 O          25.4748   72.0882    2.2177 O.co2   1  UNL1       -0.5466
     42 O          24.7672   69.9541    1.8379 O.co2   1  UNL1       -0.5466
     43 C          24.6522   71.1590    1.6709 C.2     1  UNL1        0.0799
@<TRIPOS>UNITY_ATOM_ATTR
2 1
charge -1
26 1
charge -1
41 1
charge -1
@<TRIPOS>BOND
     1     1     4    1
     2     1    24    1
     3     1     2    1
     4     1     3    2
     5    25    28    1
     6    25    24    1
     7    25    26    1
     8    25    27    2
     9     6    11    1
    10     6    12    1
    11    29    36    1
    12    29    37    1
    13     7     9    1
    14     7    13    1
    15     8    10    1
    16     8    14    1
    17     4     5    1
    18    28    36    1
    19    30    33    1
    20    30    38    1
    21    31    34    1
    22    31    39    1
    23    32    35    1
    24    32    40    1
    25    41    43   ar
    26    15    19    2
    27    42    43   ar
    28    16    22    2
    29    17    12    1
    30    17    19   ar
    31    17    20   ar
    32    18    19   ar
    33    18    22   ar
    34    18    23    1
    35     9    10    1
    36     9    11    1
    37    10    12    1
    38    11     5    1
    39    33    34    1
    40    33    35    1
    41    34    36    1
    42    35    37    1
    43    37    43    1
    44    20    21   ar
    45    21    22   ar
@<TRIPOS>MOLECULE
*****
 43 45 0 0 0
SMALL
GASTEIGER

@<TRIPOS>ATOM
      1 P          22.8144   73.1405   -4.6141 P.3     1  UNL1        0.2189
      2 O          24.1537   72.3791   -4.1186 O.co2   1  UNL1       -0.4371
      3 O          23.0255   74.5470   -5.0926 O.2     1  UNL1       -0.5170
      4 O          21.7877   72.9663   -3.3758 O.3     1  UNL1       -0.3112
      5 C          21.7258   73.9899   -2.3997 C.3     1  UNL1        0.1811
      6 O          20.9638   72.5233   -0.6544 O.3     1  UNL1       -0.3308
      7 O          18.9982   74.6778    0.0426 O.3     1  UNL1       -0.3794
      8 O          20.9442   75.0158    1.9227 O.3     1  UNL1       -0.3779
      9 C          20.3426   74.7973   -0.4230 C.3     1  UNL1        0.1713
     10 C          21.3139   74.4466    0.6841 C.3     1  UNL1        0.1895
     11 C          20.5917   73.6830   -1.4302 C.3     1  UNL1        0.1764
     12 C          21.2458   72.9290    0.6944 C.3     1  UNL1        0.2383
     13 H          18.8155   75.3795    0.6876 H       1  UNL1        0.2105
     14 H          21.0041   75.9827    1.8649 H       1  UNL1        0.2106
     15 O          21.6172   70.1570    1.0874 O.2     1  UNL1       -0.2464
     16 O          26.0243   70.7350    2.3069 O.2     1  UNL1       -0.2670
     17 N          22.4800   72.3280    1.1144 N.ar    1  UNL1       -0.2551
     18 N          23.8115   70.4476    1.6954 N.ar    1  UNL1       -0.2743
     19 C          22.5608   70.9254    1.2823 C.ar    1  UNL1        0.3323
     20 C          23.5933   73.1245    1.3535 C.ar    1  UNL1        0.0869
     21 C          24.7788   72.6546    1.7466 C.ar    1  UNL1        0.0795
     22 C          24.9474   71.2002    1.9463 C.ar    1  UNL1        0.2626
     23 H          23.8916   69.4744    1.8210 H       1  UNL1        0.1734
     24 O          22.2153   72.1333   -5.7274 O.3     1  UNL1       -0.2703
     25 P          21.0197   72.3251   -6.7987 P.3     1  UNL1        0.2208
     26 O          21.1947   71.0500   -7.7804 O.co2   1  UNL1       -0.4371
     27 O          21.0290   73.6521   -7.5008 O.2     1  UNL1       -0.5170
     28 O          19.6720   72.0170   -5.9673 O.3     1  UNL1       -0.2858
     29 O          17.9823   70.3648   -6.1234 O.3     1  UNL1       -0.3226
     30 O          15.7812   73.7320   -5.1827 O.3     1  UNL1       -0.3794
     31 O          17.9614   73.8819   -7.1214 O.3     1  UNL1       -0.3775
     32 O          16.3026   71.7159   -3.1543 O.3     1  UNL1       -0.3792
     33 C          16.9247   72.8775   -5.1714 C.3     1  UNL1        0.1718
     34 C          17.4236   72.6714   -6.6018 C.3     1  UNL1        0.1968
     35 C          16.5095   71.5400   -4.5546 C.3     1  UNL1        0.1723
     36 C          18.4991   71.5854   -6.6550 C.3     1  UNL1        0.2706
     37 C          17.5831   70.4750   -4.7590 C.3     1  UNL1        0.1830
     38 H          16.0210   74.5884   -5.5706 H       1  UNL1        0.2105
     39 H          17.2843   74.5755   -7.0905 H       1  UNL1        0.2106
     40 H          15.6216   72.3914   -3.0104 H       1  UNL1        0.2106
     41 O          17.2630   68.7922   -3.1568 O.co2   1  UNL1       -0.5466
     42 O          16.4832   68.3870   -5.2608 O.co2   1  UNL1       -0.5466
     43 C          17.0452   69.1145   -4.4559 C.2     1  UNL1        0.0799
@<TRIPOS>UNITY_ATOM_ATTR
2 1
charge -1
26 1
charge -1
41 1
charge -1
@<TRIPOS>BOND
     1     1     4    1
     2     1    24    1
     3     1     2    1
     4     1     3    2
     5    25    28    1
     6    25    24    1
     7    25    26    1
     8    25    27    2
     9     6    11    1
    10     6    12    1
    11    29    36    1
    12    29    37    1
    13     7     9    1
    14     7    13    1
    15     8    10    1
    16     8    14    1
    17     4     5    1
    18    28    36    1
    19    30    33    1
    20    30    38    1
    21    31    34    1
    22    31    39    1
    23    32    35    1
    24    32    40    1
    25    41    43   ar
    26    15    19    2
    27    42    43   ar
    28    16    22    2
    29    17    12    1
    30    17    19   ar
    31    17    20   ar
    32    18    19   ar
    33    18    22   ar
    34    18    23    1
    35     9    10    1
    36     9    11    1
    37    10    12    1
    38    11     5    1
    39    33    34    1
    40    33    35    1
    41    34    36    1
    42    35    37    1
    43    37    43    1
    44    20    21   ar
    45    21    22   ar
@<TRIPOS>MOLECULE
*****
 43 45 0 0 0
SMALL
GASTEIGER

@<TRIPOS>ATOM
      1 P          20.3629   72.0847   -2.2678 P.3     1  UNL1        0.2189
      2 O          20.0845   71.0784   -1.0314 O.co2   1  UNL1       -0.4371
      3 O          20.3712   73.5418   -1.9093 O.2     1  UNL1       -0.5170
      4 O          19.2765   71.6413   -3.3818 O.3     1  UNL1       -0.3112
      5 C          18.3177   72.5922   -3.8072 C.3     1  UNL1        0.1811
      6 O          16.5928   71.8896   -5.3267 O.3     1  UNL1       -0.3308
      7 O          15.6456   70.0876   -3.1251 O.3     1  UNL1       -0.3794
      8 O          17.0162   68.3769   -4.7472 O.3     1  UNL1       -0.3779
      9 C          16.9785   70.4535   -3.4829 C.3     1  UNL1        0.1713
     10 C          17.3967   69.7370   -4.7493 C.3     1  UNL1        0.1895
     11 C          16.9620   71.9087   -3.9308 C.3     1  UNL1        0.1764
     12 C          16.6800   70.5431   -5.8191 C.3     1  UNL1        0.2383
     13 H          15.6309   69.1616   -2.8355 H       1  UNL1        0.2105
     14 H          17.4999   67.9070   -4.0492 H       1  UNL1        0.2106
     15 O          15.4398   70.6412   -8.3546 O.2     1  UNL1       -0.2464
     16 O          19.4948   70.5553  -10.5440 O.2     1  UNL1       -0.2670
     17 N          17.3878   70.5475   -7.0681 N.ar    1  UNL1       -0.2551
     18 N          17.4606   70.5973   -9.4427 N.ar    1  UNL1       -0.2743
     19 C          16.6696   70.5986   -8.2862 C.ar    1  UNL1        0.3323
     20 C          18.7766   70.5034   -7.0784 C.ar    1  UNL1        0.0869
     21 C          19.5168   70.5030   -8.1888 C.ar    1  UNL1        0.0795
     22 C          18.8441   70.5538   -9.5034 C.ar    1  UNL1        0.2626
     23 H          16.9829   70.6303  -10.3029 H       1  UNL1        0.1734
     24 O          21.7546   71.5335   -2.8780 O.3     1  UNL1       -0.2703
     25 P          23.2799   71.7127   -2.3729 P.3     1  UNL1        0.2208
     26 O          23.5739   73.2829   -2.6342 O.co2   1  UNL1       -0.4371
     27 O          24.2590   70.7826   -3.0288 O.2     1  UNL1       -0.5170
     28 O          23.1982   71.5754   -0.7676 O.3     1  UNL1       -0.2858
     29 O          23.0179   73.6292    0.3979 O.3     1  UNL1       -0.3226
     30 O          23.7191   70.9712    3.4820 O.3     1  UNL1       -0.3794
     31 O          25.2050   70.7570    0.9758 O.3     1  UNL1       -0.3775
     32 O          21.0454   72.0243    3.0429 O.3     1  UNL1       -0.3792
     33 C          23.2176   71.3927    2.2136 C.3     1  UNL1        0.1718
     34 C          24.3778   71.8582    1.3335 C.3     1  UNL1        0.1968
     35 C          22.2356   72.5421    2.4517 C.3     1  UNL1        0.1723
     36 C          23.8630   72.5290    0.0592 C.3     1  UNL1        0.2706
     37 C          21.8677   73.2400    1.1455 C.3     1  UNL1        0.1830
     38 H          24.3455   70.2411    3.3557 H       1  UNL1        0.2105
     39 H          25.5349   70.3265    1.7796 H       1  UNL1        0.2106
     40 H          21.2657   71.5773    3.8751 H       1  UNL1        0.2106
     41 O          19.8559   74.3553    1.6040 O.co2   1  UNL1       -0.5466
     42 O          21.7416   75.6290    1.4592 O.co2   1  UNL1       -0.5466
     43 C          21.1855   74.5419    1.4136 C.2     1  UNL1        0.0799
@<TRIPOS>UNITY_ATOM_ATTR
2 1
charge -1
26 1
charge -1
41 1
charge -1
@<TRIPOS>BOND
     1     1     4    1
     2     1    24    1
     3     1     2    1
     4     1     3    2
     5    25    28    1
     6    25    24    1
     7    25    26    1
     8    25    27    2
     9     6    11    1
    10     6    12    1
    11    29    36    1
    12    29    37    1
    13     7     9    1
    14     7    13    1
    15     8    10    1
    16     8    14    1
    17     4     5    1
    18    28    36    1
    19    30    33    1
    20    30    38    1
    21    31    34    1
    22    31    39    1
    23    32    35    1
    24    32    40    1
    25    41    43   ar
    26    15    19    2
    27    42    43   ar
    28    16    22    2
    29    17    12    1
    30    17    19   ar
    31    17    20   ar
    32    18    19   ar
    33    18    22   ar
    34    18    23    1
    35     9    10    1
    36     9    11    1
    37    10    12    1
    38    11     5    1
    39    33    34    1
    40    33    35    1
    41    34    36    1
    42    35    37    1
    43    37    43    1
    44    20    21   ar
    45    21    22   ar
@<TRIPOS>MOLECULE
*****
 43 45 0 0 0
SMALL
GASTEIGER

@<TRIPOS>ATOM
      1 P          22.2683   73.0901   -5.1030 P.3     1  UNL1        0.2189
      2 O          22.4034   74.7026   -5.0810 O.co2   1  UNL1       -0.4371
      3 O          23.2893   72.3802   -5.9428 O.2     1  UNL1       -0.5170
      4 O          20.7233   72.8351   -5.5103 O.3     1  UNL1       -0.3112
      5 C          20.3980   72.7082   -6.8824 C.3     1  UNL1        0.1811
      6 O          19.6102   70.5797   -6.0907 O.3     1  UNL1       -0.3308
      7 O          19.6421   69.7099   -8.9602 O.3     1  UNL1       -0.3794
      8 O          17.0018   70.2365   -8.5265 O.3     1  UNL1       -0.3779
      9 C          19.3125   70.9837   -8.4056 C.3     1  UNL1        0.1713
     10 C          17.9511   70.9315   -7.7452 C.3     1  UNL1        0.1895
     11 C          20.2332   71.2316   -7.2186 C.3     1  UNL1        0.1764
     12 C          18.2621   70.2245   -6.4370 C.3     1  UNL1        0.2383
     13 H          19.0667   69.5293   -9.7204 H       1  UNL1        0.2105
     14 H          16.8379   70.7267   -9.3479 H       1  UNL1        0.2106
     15 O          16.5644   68.4696   -5.0177 O.2     1  UNL1       -0.2464
     16 O          14.9407   71.8819   -2.3789 O.2     1  UNL1       -0.2670
     17 N          17.3853   70.6277   -5.3743 N.ar    1  UNL1       -0.2551
     18 N          15.7566   70.1710   -3.7055 N.ar    1  UNL1       -0.2743
     19 C          16.5733   69.6670   -4.7263 C.ar    1  UNL1        0.3323
     20 C          17.3368   71.9601   -4.9829 C.ar    1  UNL1        0.0869
     21 C          16.5533   72.4254   -4.0080 C.ar    1  UNL1        0.0795
     22 C          15.6732   71.4872   -3.2810 C.ar    1  UNL1        0.2626
     23 H          15.1807   69.5213   -3.2410 H       1  UNL1        0.1734
     24 O          22.2993   72.7019   -3.5341 O.3     1  UNL1       -0.2703
     25 P          22.3832   71.2651   -2.7977 P.3     1  UNL1        0.2208
     26 O          23.9748   70.9787   -2.7259 O.co2   1  UNL1       -0.4371
     27 O          21.5895   70.1818   -3.4689 O.2     1  UNL1       -0.5170
     28 O          21.9536   71.5619   -1.2713 O.3     1  UNL1       -0.2858
     29 O          23.6442   72.7635   -0.1279 O.3     1  UNL1       -0.3226
     30 O          20.9307   72.0406    2.9024 O.3     1  UNL1       -0.3794
     31 O          21.5788   69.9519    0.9655 O.3     1  UNL1       -0.3775
     32 O          21.1179   74.6860    1.7116 O.3     1  UNL1       -0.3792
     33 C          21.3499   72.2925    1.5612 C.3     1  UNL1        0.1718
     34 C          22.2890   71.1774    1.1005 C.3     1  UNL1        0.1968
     35 C          22.0730   73.6411    1.5372 C.3     1  UNL1        0.1723
     36 C          22.9379   71.5273   -0.2394 C.3     1  UNL1        0.2706
     37 C          22.7993   73.8602    0.2132 C.3     1  UNL1        0.1830
     38 H          20.4686   71.1884    2.9422 H       1  UNL1        0.2105
     39 H          21.1642   69.7239    1.8120 H       1  UNL1        0.2106
     40 H          20.6484   74.5582    2.5508 H       1  UNL1        0.2106
     41 O          23.1112   76.1844    0.1611 O.co2   1  UNL1       -0.5466
     42 O          24.9580   74.8948    0.5154 O.co2   1  UNL1       -0.5466
     43 C          23.7572   75.0022    0.3163 C.2     1  UNL1        0.0799
@<TRIPOS>UNITY_ATOM_ATTR
2 1
charge -1
26 1
charge -1
41 1
charge -1
@<TRIPOS>BOND
     1     1     4    1
     2     1    24    1
     3     1     2    1
     4     1     3    2
     5    25    28    1
     6    25    24    1
     7    25    26    1
     8    25    27    2
     9     6    11    1
    10     6    12    1
    11    29    36    1
    12    29    37    1
    13     7     9    1
    14     7    13    1
    15     8    10    1
    16     8    14    1
    17     4     5    1
    18    28    36    1
    19    30    33    1
    20    30    38    1
    21    31    34    1
    22    31    39    1
    23    32    35    1
    24    32    40    1
    25    41    43   ar
    26    15    19    2
    27    42    43   ar
    28    16    22    2
    29    17    12    1
    30    17    19   ar
    31    17    20   ar
    32    18    19   ar
    33    18    22   ar
    34    18    23    1
    35     9    10    1
    36     9    11    1
    37    10    12    1
    38    11     5    1
    39    33    34    1
    40    33    35    1
    41    34    36    1
    42    35    37    1
    43    37    43    1
    44    20    21   ar
    45    21    22   ar
@<TRIPOS>MOLECULE
*****
 43 45 0 0 0
SMALL
GASTEIGER

@<TRIPOS>ATOM
      1 P          19.6980   73.9938   -3.5339 P.3     1  UNL1        0.2189
      2 O          18.8536   75.3675   -3.6711 O.co2   1  UNL1       -0.4371
      3 O          18.8767   72.7385   -3.5747 O.2     1  UNL1       -0.5170
      4 O          20.5810   74.2125   -2.1958 O.3     1  UNL1       -0.3112
      5 C          21.8766   73.6441   -2.1404 C.3     1  UNL1        0.1811
      6 O          23.0022   71.7645   -1.1517 O.3     1  UNL1       -0.3308
      7 O          20.2833   70.5407   -0.8334 O.3     1  UNL1       -0.3794
      8 O          20.8106   71.4808    1.6714 O.3     1  UNL1       -0.3779
      9 C          20.6779   71.9080   -0.7186 C.3     1  UNL1        0.1713
     10 C          21.4259   72.1305    0.5788 C.3     1  UNL1        0.1895
     11 C          21.7576   72.1743   -1.7586 C.3     1  UNL1        0.1764
     12 C          22.7959   71.5594    0.2549 C.3     1  UNL1        0.2383
     13 H          19.5939   70.3467   -0.1786 H       1  UNL1        0.2105
     14 H          19.9420   71.8806    1.8378 H       1  UNL1        0.2106
     15 O          24.6703   70.2251    1.8928 O.2     1  UNL1       -0.2464
     16 O          26.7882   74.1677    2.9945 O.2     1  UNL1       -0.2670
     17 N          23.8477   72.2128    0.9813 N.ar    1  UNL1       -0.2551
     18 N          25.7227   72.1901    2.4408 N.ar    1  UNL1       -0.2743
     19 C          24.7362   71.4502    1.7758 C.ar    1  UNL1        0.3323
     20 C          23.9923   73.5925    0.9015 C.ar    1  UNL1        0.0869
     21 C          24.9378   74.2838    1.5410 C.ar    1  UNL1        0.0795
     22 C          25.9061   73.5626    2.3929 C.ar    1  UNL1        0.2626
     23 H          26.3518   71.6812    3.0017 H       1  UNL1        0.1734
     24 O          20.7926   74.1209   -4.7165 O.3     1  UNL1       -0.2703
     25 P          21.0864   73.1785   -5.9967 P.3     1  UNL1        0.2208
     26 O          22.1819   72.1260   -5.4376 O.co2   1  UNL1       -0.4371
     27 O          21.5175   73.9256   -7.2255 O.2     1  UNL1       -0.5170
     28 O          19.7413   72.3069   -6.1806 O.3     1  UNL1       -0.2858
     29 O          19.0374   70.1062   -5.6606 O.3     1  UNL1       -0.3226
     30 O          17.5357   70.5890   -9.4790 O.3     1  UNL1       -0.3794
     31 O          20.2166   71.5382   -8.8111 O.3     1  UNL1       -0.3775
     32 O          15.7581   70.7307   -7.1831 O.3     1  UNL1       -0.3792
     33 C          17.9369   71.0063   -8.1740 C.3     1  UNL1        0.1718
     34 C          19.4225   70.7050   -7.9745 C.3     1  UNL1        0.1968
     35 C          17.0961   70.2374   -7.1523 C.3     1  UNL1        0.1723
     36 C          19.8344   70.9241   -6.5181 C.3     1  UNL1        0.2706
     37 C          17.6456   70.4059   -5.7388 C.3     1  UNL1        0.1830
     38 H          18.0568   71.0644  -10.1451 H       1  UNL1        0.2105
     39 H          19.9604   71.4046   -9.7367 H       1  UNL1        0.2106
     40 H          15.3966   70.6294   -8.0775 H       1  UNL1        0.2106
     41 O          16.3370   68.4738   -5.5021 O.co2   1  UNL1       -0.5466
     42 O          17.1458   69.4225   -3.5930 O.co2   1  UNL1       -0.5466
     43 C          17.0348   69.4079   -4.8097 C.2     1  UNL1        0.0799
@<TRIPOS>UNITY_ATOM_ATTR
2 1
charge -1
26 1
charge -1
41 1
charge -1
@<TRIPOS>BOND
     1     1     4    1
     2     1    24    1
     3     1     2    1
     4     1     3    2
     5    25    28    1
     6    25    24    1
     7    25    26    1
     8    25    27    2
     9     6    11    1
    10     6    12    1
    11    29    36    1
    12    29    37    1
    13     7     9    1
    14     7    13    1
    15     8    10    1
    16     8    14    1
    17     4     5    1
    18    28    36    1
    19    30    33    1
    20    30    38    1
    21    31    34    1
    22    31    39    1
    23    32    35    1
    24    32    40    1
    25    41    43   ar
    26    15    19    2
    27    42    43   ar
    28    16    22    2
    29    17    12    1
    30    17    19   ar
    31    17    20   ar
    32    18    19   ar
    33    18    22   ar
    34    18    23    1
    35     9    10    1
    36     9    11    1
    37    10    12    1
    38    11     5    1
    39    33    34    1
    40    33    35    1
    41    34    36    1
    42    35    37    1
    43    37    43    1
    44    20    21   ar
    45    21    22   ar
@<TRIPOS>MOLECULE
*****
 43 45 0 0 0
SMALL
GASTEIGER

@<TRIPOS>ATOM
      1 P          22.1715   74.6950   -5.9554 P.3     1  UNL1        0.2189
      2 O          21.3141   76.0646   -5.8663 O.co2   1  UNL1       -0.4371
      3 O          23.3008   74.7176   -6.9433 O.2     1  UNL1       -0.5170
      4 O          21.0524   73.5509   -6.1937 O.3     1  UNL1       -0.3112
      5 C          21.0851   72.8145   -7.4025 C.3     1  UNL1        0.1811
      6 O          19.7946   71.2421   -6.1219 O.3     1  UNL1       -0.3308
      7 O          20.7395   69.1654   -8.0677 O.3     1  UNL1       -0.3794
      8 O          18.2126   69.6971   -8.9441 O.3     1  UNL1       -0.3779
      9 C          20.4026   70.5334   -8.2989 C.3     1  UNL1        0.1713
     10 C          18.9007   70.7184   -8.2527 C.3     1  UNL1        0.1895
     11 C          20.8602   71.3404   -7.0915 C.3     1  UNL1        0.1764
     12 C          18.6264   70.7004   -6.7586 C.3     1  UNL1        0.2383
     13 H          20.4568   68.6299   -8.8260 H       1  UNL1        0.2105
     14 H          18.4198   69.7512   -9.8907 H       1  UNL1        0.2106
     15 O          16.6215   69.8926   -4.9409 O.2     1  UNL1       -0.2464
     16 O          14.3023   73.8415   -5.4614 O.2     1  UNL1       -0.2670
     17 N          17.4875   71.4978   -6.4009 N.ar    1  UNL1       -0.2551
     18 N          15.4678   71.8597   -5.2026 N.ar    1  UNL1       -0.2743
     19 C          16.5383   70.9988   -5.4779 C.ar    1  UNL1        0.3323
     20 C          17.3204   72.7588   -6.9604 C.ar    1  UNL1        0.0869
     21 C          16.2949   73.5680   -6.6881 C.ar    1  UNL1        0.0795
     22 C          15.2582   73.1218   -5.7344 C.ar    1  UNL1        0.2626
     23 H          14.7929   71.5333   -4.5644 H       1  UNL1        0.1734
     24 O          22.6223   74.4487   -4.4228 O.3     1  UNL1       -0.2703
     25 P          23.5308   73.2890   -3.7569 P.3     1  UNL1        0.2208
     26 O          25.0363   73.8630   -3.9132 O.co2   1  UNL1       -0.4371
     27 O          23.3237   71.9264   -4.3523 O.2     1  UNL1       -0.5170
     28 O          23.2211   73.3832   -2.1765 O.3     1  UNL1       -0.2858
     29 O          21.9855   71.9675   -0.7349 O.3     1  UNL1       -0.3226
     30 O          21.2099   75.6918    0.8764 O.3     1  UNL1       -0.3794
     31 O          21.2144   75.3027   -2.0189 O.3     1  UNL1       -0.3775
     32 O          23.0776   73.8934    2.1910 O.3     1  UNL1       -0.3792
     33 C          21.9827   74.6990    0.2017 C.3     1  UNL1        0.1718
     34 C          21.2484   74.2502   -1.0619 C.3     1  UNL1        0.1968
     35 C          22.1712   73.5174    1.1558 C.3     1  UNL1        0.1723
     36 C          21.9287   73.0311   -1.6862 C.3     1  UNL1        0.2706
     37 C          22.7373   72.3003    0.4301 C.3     1  UNL1        0.1830
     38 H          21.0771   76.4526    0.2892 H       1  UNL1        0.2105
     39 H          20.7843   76.0796   -1.6294 H       1  UNL1        0.2106
     40 H          22.7291   74.6672    2.6606 H       1  UNL1        0.2106
     41 O          21.5481   70.3287    0.8777 O.co2   1  UNL1       -0.5466
     42 O          23.3572   70.7735    2.1925 O.co2   1  UNL1       -0.5466
     43 C          22.6102   71.0734    1.2732 C.2     1  UNL1        0.0799
@<TRIPOS>UNITY_ATOM_ATTR
2 1
charge -1
26 1
charge -1
41 1
charge -1
@<TRIPOS>BOND
     1     1     4    1
     2     1    24    1
     3     1     2    1
     4     1     3    2
     5    25    28    1
     6    25    24    1
     7    25    26    1
     8    25    27    2
     9     6    11    1
    10     6    12    1
    11    29    36    1
    12    29    37    1
    13     7     9    1
    14     7    13    1
    15     8    10    1
    16     8    14    1
    17     4     5    1
    18    28    36    1
    19    30    33    1
    20    30    38    1
    21    31    34    1
    22    31    39    1
    23    32    35    1
    24    32    40    1
    25    41    43   ar
    26    15    19    2
    27    42    43   ar
    28    16    22    2
    29    17    12    1
    30    17    19   ar
    31    17    20   ar
    32    18    19   ar
    33    18    22   ar
    34    18    23    1
    35     9    10    1
    36     9    11    1
    37    10    12    1
    38    11     5    1
    39    33    34    1
    40    33    35    1
    41    34    36    1
    42    35    37    1
    43    37    43    1
    44    20    21   ar
    45    21    22   ar
