@<TRIPOS>MOLECULE
GDU
 43 45 0 0 0
SMALL
GASTEIGER

@<TRIPOS>ATOM
      1 P          22.1449   70.8820   -2.4795 P.3     1  UNL1        0.2189
      2 O          21.5555   69.6354   -1.9426 O.2     1  UNL1       -0.5170
      3 O          23.5408   70.5451   -3.2080 O.3     1  UNL1       -0.4371
      4 O          21.1316   71.5418   -3.5401 O.3     1  UNL1       -0.3112
      5 C          20.1585   72.2670   -2.7866 C.3     1  UNL1        0.1811
      6 C          17.9138   71.3227   -5.4319 C.3     1  UNL1        0.2383
      7 C          18.0139   70.0606   -4.5374 C.3     1  UNL1        0.1895
      8 O          16.7966   69.3123   -4.5733 O.3     1  UNL1       -0.3779
      9 C          18.2439   70.6756   -3.1323 C.3     1  UNL1        0.1713
     10 C          18.7800   72.0891   -3.4257 C.3     1  UNL1        0.1764
     11 O          18.8828   72.2230   -4.8539 O.3     1  UNL1       -0.3308
     12 O          17.0139   70.7402   -2.4079 O.3     1  UNL1       -0.3794
     13 H          16.9245   68.5440   -3.9995 H       1  UNL1        0.2106
     14 H          16.6997   69.8313   -2.3078 H       1  UNL1        0.2105
     15 N          18.2664   71.0054   -6.8167 N.ar    1  UNL1       -0.2551
     16 C          17.2987   70.6909   -7.6959 C.ar    1  UNL1        0.3323
     17 N          17.5956   70.3985   -8.9758 N.ar    1  UNL1       -0.2743
     18 C          18.8753   70.4069   -9.3960 C.ar    1  UNL1        0.2626
     19 C          19.9057   70.7306   -8.4795 C.ar    1  UNL1        0.0795
     20 C          19.5797   71.0240   -7.2028 C.ar    1  UNL1        0.0869
     21 O          16.1397   70.6797   -7.3317 O.2     1  UNL1       -0.2464
     22 O          19.1455   70.1377  -10.5532 O.2     1  UNL1       -0.2670
     23 H          16.8841   70.1780   -9.5978 H       1  UNL1        0.1734
     24 O          22.4069   71.9141   -1.2718 O.3     1  UNL1       -0.2703
     25 P          22.4158   71.0508    0.0863 P.3     1  UNL1        0.2208
     26 O          21.1171   70.3585    0.2390 O.2     1  UNL1       -0.5170
     27 O          23.5999   69.9609    0.0213 O.3     1  UNL1       -0.4371
     28 O          22.6554   72.0274    1.3428 O.3     1  UNL1       -0.2858
     29 C          21.9679   73.2464    1.0579 C.3     1  UNL1        0.2704
     30 C          22.9779   74.3916    0.9687 C.3     1  UNL1        0.1967
     31 C          23.7336   74.4945    2.2971 C.3     1  UNL1        0.1715
     32 C          22.7123   74.6126    3.4340 C.3     1  UNL1        0.1694
     33 C          21.7230   73.4486    3.3373 C.3     1  UNL1        0.1761
     34 O          23.9015   74.1338   -0.0904 O.3     1  UNL1       -0.3775
     35 O          24.5751   75.6496    2.2824 O.3     1  UNL1       -0.3794
     36 O          22.0118   75.8521    3.3202 O.3     1  UNL1       -0.3794
     37 O          21.0254   73.5118    2.0942 O.3     1  UNL1       -0.3258
     38 H          23.3825   74.0697   -0.9037 H       1  UNL1        0.2106
     39 H          25.1910   75.5379    1.5473 H       1  UNL1        0.2105
     40 H          22.6730   76.5539    3.3805 H       1  UNL1        0.2105
     41 C          20.7190   73.5379    4.4888 C.3     1  UNL1        0.1693
     42 O          21.3097   73.0084    5.6769 O.3     1  UNL1       -0.3794
     43 H          20.6465   73.0837    6.3768 H       1  UNL1        0.2105
@<TRIPOS>BOND
     1    15    16   ar
     2    15    20   ar
     3    15     6    1
     4    16    17   ar
     5    16    21    2
     6    17    18   ar
     7    17    23    1
     8    18    19   ar
     9    18    22    2
    10    19    20   ar
    11     6     7    1
    12     6    11    1
    13     7     8    1
    14     7     9    1
    15     8    13    1
    16     9    10    1
    17     9    12    1
    18    10    11    1
    19    10     5    1
    20    12    14    1
    21     5     4    1
    22     4     1    1
    23     1     2    2
    24     1     3    1
    25     1    24    1
    26    24    25    1
    27    25    26    2
    28    25    27    1
    29    25    28    1
    30    28    29    1
    31    29    30    1
    32    29    37    1
    33    30    31    1
    34    30    34    1
    35    31    32    1
    36    31    35    1
    37    32    33    1
    38    32    36    1
    39    33    41    1
    40    33    37    1
    41    41    42    1
    42    34    38    1
    43    35    39    1
    44    36    40    1
    45    42    43    1
@<TRIPOS>MOLECULE
GDU
 43 45 0 0 0
SMALL
GASTEIGER

@<TRIPOS>ATOM
      1 P          22.8554   74.5590   -3.6161 P.3     1  UNL1        0.2189
      2 O          22.8974   75.7312   -4.5182 O.2     1  UNL1       -0.5170
      3 O          24.1459   73.6326   -3.8797 O.3     1  UNL1       -0.4371
      4 O          22.8561   75.0577   -2.0871 O.3     1  UNL1       -0.3112
      5 C          22.0024   74.1709   -1.3622 C.3     1  UNL1        0.1811
      6 C          23.0749   72.5220    1.6475 C.3     1  UNL1        0.2383
      7 C          21.9761   71.5956    1.0667 C.3     1  UNL1        0.1895
      8 O          22.2313   70.2296    1.4017 O.3     1  UNL1       -0.3779
      9 C          22.1278   71.8286   -0.4591 C.3     1  UNL1        0.1713
     10 C          22.8525   73.1836   -0.5605 C.3     1  UNL1        0.1764
     11 O          23.0382   73.6740    0.7786 O.3     1  UNL1       -0.3308
     12 O          22.9118   70.7890   -1.0477 O.3     1  UNL1       -0.3794
     13 H          21.5148   69.7086    1.0129 H       1  UNL1        0.2106
     14 H          22.4352   69.9609   -0.9001 H       1  UNL1        0.2105
     15 N          22.7560   72.9039    3.0242 N.ar    1  UNL1       -0.2551
     16 C          21.5372   72.6360    3.5252 C.ar    1  UNL1        0.3323
     17 N          21.2196   72.9734    4.7890 N.ar    1  UNL1       -0.2743
     18 C          22.1198   73.5973    5.5729 C.ar    1  UNL1        0.2626
     19 C          23.4057   73.8911    5.0566 C.ar    1  UNL1        0.0795
     20 C          23.6994   73.5378    3.7872 C.ar    1  UNL1        0.0869
     21 O          20.7148   72.0732    2.8302 O.2     1  UNL1       -0.2464
     22 O          21.8316   73.9074    6.7154 O.2     1  UNL1       -0.2670
     23 H          20.3366   72.7685    5.1356 H       1  UNL1        0.1734
     24 O          21.5186   73.7090   -3.9042 O.3     1  UNL1       -0.2703
     25 P          21.9617   72.4159   -4.7536 P.3     1  UNL1        0.2208
     26 O          22.6327   72.8502   -5.9988 O.2     1  UNL1       -0.5170
     27 O          22.9785   71.5229   -3.8801 O.3     1  UNL1       -0.4371
     28 O          20.6611   71.5419   -5.1205 O.3     1  UNL1       -0.2858
     29 C          19.5258   72.2704   -4.6514 C.3     1  UNL1        0.2704
     30 C          18.6397   71.3478   -3.8131 C.3     1  UNL1        0.1967
     31 C          18.2015   70.1593   -4.6745 C.3     1  UNL1        0.1715
     32 C          17.5557   70.6955   -5.9571 C.3     1  UNL1        0.1694
     33 C          18.5257   71.6668   -6.6343 C.3     1  UNL1        0.1761
     34 O          19.3745   70.8761   -2.6823 O.3     1  UNL1       -0.3775
     35 O          17.2562   69.3663   -3.9534 O.3     1  UNL1       -0.3794
     36 O          16.3412   71.3737   -5.6331 O.3     1  UNL1       -0.3794
     37 O          18.7890   72.7679   -5.7659 O.3     1  UNL1       -0.3258
     38 H          19.6355   71.6561   -2.1740 H       1  UNL1        0.2106
     39 H          17.7002   69.0615   -3.1519 H       1  UNL1        0.2105
     40 H          15.7652   70.7270   -5.2050 H       1  UNL1        0.2105
     41 C          17.9042   72.1820   -7.9345 C.3     1  UNL1        0.1693
     42 O          18.2485   71.3032   -9.0069 O.3     1  UNL1       -0.3794
     43 H          17.8379   71.6621   -9.8056 H       1  UNL1        0.2105
@<TRIPOS>BOND
     1    15    16   ar
     2    15    20   ar
     3    15     6    1
     4    16    17   ar
     5    16    21    2
     6    17    18   ar
     7    17    23    1
     8    18    19   ar
     9    18    22    2
    10    19    20   ar
    11     6     7    1
    12     6    11    1
    13     7     8    1
    14     7     9    1
    15     8    13    1
    16     9    10    1
    17     9    12    1
    18    10    11    1
    19    10     5    1
    20    12    14    1
    21     5     4    1
    22     4     1    1
    23     1     2    2
    24     1     3    1
    25     1    24    1
    26    24    25    1
    27    25    26    2
    28    25    27    1
    29    25    28    1
    30    28    29    1
    31    29    30    1
    32    29    37    1
    33    30    31    1
    34    30    34    1
    35    31    32    1
    36    31    35    1
    37    32    33    1
    38    32    36    1
    39    33    41    1
    40    33    37    1
    41    41    42    1
    42    34    38    1
    43    35    39    1
    44    36    40    1
    45    42    43    1
@<TRIPOS>MOLECULE
GDU
 43 45 0 0 0
SMALL
GASTEIGER

@<TRIPOS>ATOM
      1 P          22.0706   73.9739   -6.9345 P.3     1  UNL1        0.2189
      2 O          22.7885   72.6913   -7.1052 O.2     1  UNL1       -0.5170
      3 O          23.1336   75.1830   -6.8989 O.3     1  UNL1       -0.4371
      4 O          21.0549   74.1885   -8.1630 O.3     1  UNL1       -0.3112
      5 C          21.3007   73.1320   -9.0925 C.3     1  UNL1        0.1811
      6 C          18.5789   71.1765   -7.7905 C.3     1  UNL1        0.2383
      7 C          17.9871   72.5984   -7.9665 C.3     1  UNL1        0.1895
      8 O          16.5906   72.5362   -8.2649 O.3     1  UNL1       -0.3779
      9 C          18.7887   73.1360   -9.1805 C.3     1  UNL1        0.1713
     10 C          20.0523   72.2563   -9.2138 C.3     1  UNL1        0.1764
     11 O          19.9783   71.3538   -8.0965 O.3     1  UNL1       -0.3308
     12 O          18.0338   72.9846  -10.3843 O.3     1  UNL1       -0.3794
     13 H          16.2852   73.4490   -8.3616 H       1  UNL1        0.2106
     14 H          17.2295   73.5105  -10.2784 H       1  UNL1        0.2105
     15 N          18.4070   70.7107   -6.4135 N.ar    1  UNL1       -0.2551
     16 C          17.2673   70.0933   -6.0557 C.ar    1  UNL1        0.3323
     17 N          17.0854   69.6523   -4.7970 N.ar    1  UNL1       -0.2743
     18 C          18.0441   69.8325   -3.8682 C.ar    1  UNL1        0.2626
     19 C          19.2475   70.4865   -4.2292 C.ar    1  UNL1        0.0795
     20 C          19.4056   70.9150   -5.4996 C.ar    1  UNL1        0.0869
     21 O          16.3937   69.9230   -6.8827 O.2     1  UNL1       -0.2464
     22 O          17.8784   69.4380   -2.7274 O.2     1  UNL1       -0.2670
     23 H          16.2583   69.2049   -4.5574 H       1  UNL1        0.1734
     24 O          21.2451   73.9460   -5.5524 O.3     1  UNL1       -0.2703
     25 P          22.3243   73.8031   -4.3671 P.3     1  UNL1        0.2208
     26 O          23.4966   73.0446   -4.8565 O.2     1  UNL1       -0.5170
     27 O          22.7944   75.2679   -3.8903 O.3     1  UNL1       -0.4371
     28 O          21.6596   73.0236   -3.1259 O.3     1  UNL1       -0.2858
     29 C          22.6808   72.8664   -2.1398 C.3     1  UNL1        0.2704
     30 C          22.8629   71.3801   -1.8280 C.3     1  UNL1        0.1967
     31 C          21.5332   70.8095   -1.3254 C.3     1  UNL1        0.1715
     32 C          21.0441   71.6668   -0.1526 C.3     1  UNL1        0.1694
     33 C          20.9980   73.1322   -0.5925 C.3     1  UNL1        0.1761
     34 O          23.2654   70.6886   -3.0117 O.3     1  UNL1       -0.3775
     35 O          21.7229   69.4611   -0.8913 O.3     1  UNL1       -0.3794
     36 O          21.9392   71.5222    0.9509 O.3     1  UNL1       -0.3794
     37 O          22.3075   73.5672   -0.9557 O.3     1  UNL1       -0.3258
     38 H          24.1005   71.0845   -3.2958 H       1  UNL1        0.2106
     39 H          22.0409   68.9633   -1.6551 H       1  UNL1        0.2105
     40 H          21.9407   70.5860    1.1893 H       1  UNL1        0.2105
     41 C          20.4779   73.9931    0.5609 C.3     1  UNL1        0.1693
     42 O          20.9293   73.4481    1.8020 O.3     1  UNL1       -0.3794
     43 H          20.5816   74.0186    2.5012 H       1  UNL1        0.2105
@<TRIPOS>BOND
     1    15    16   ar
     2    15    20   ar
     3    15     6    1
     4    16    17   ar
     5    16    21    2
     6    17    18   ar
     7    17    23    1
     8    18    19   ar
     9    18    22    2
    10    19    20   ar
    11     6     7    1
    12     6    11    1
    13     7     8    1
    14     7     9    1
    15     8    13    1
    16     9    10    1
    17     9    12    1
    18    10    11    1
    19    10     5    1
    20    12    14    1
    21     5     4    1
    22     4     1    1
    23     1     2    2
    24     1     3    1
    25     1    24    1
    26    24    25    1
    27    25    26    2
    28    25    27    1
    29    25    28    1
    30    28    29    1
    31    29    30    1
    32    29    37    1
    33    30    31    1
    34    30    34    1
    35    31    32    1
    36    31    35    1
    37    32    33    1
    38    32    36    1
    39    33    41    1
    40    33    37    1
    41    41    42    1
    42    34    38    1
    43    35    39    1
    44    36    40    1
    45    42    43    1
@<TRIPOS>MOLECULE
GDU
 43 45 0 0 0
SMALL
GASTEIGER

@<TRIPOS>ATOM
      1 P          22.7726   73.9539   -3.9438 P.3     1  UNL1        0.2189
      2 O          22.8211   75.0726   -4.9112 O.2     1  UNL1       -0.5170
      3 O          24.1582   73.1355   -4.0001 O.3     1  UNL1       -0.4371
      4 O          22.5528   74.5356   -2.4606 O.3     1  UNL1       -0.3112
      5 C          21.8347   73.5413   -1.7283 C.3     1  UNL1        0.1811
      6 C          23.0885   72.2802    1.3966 C.3     1  UNL1        0.2383
      7 C          22.1467   71.1643    0.8764 C.3     1  UNL1        0.1895
      8 O          22.5937   69.8772    1.3086 O.3     1  UNL1       -0.3779
      9 C          22.2872   71.3111   -0.6611 C.3     1  UNL1        0.1713
     10 C          22.8072   72.7477   -0.8539 C.3     1  UNL1        0.1764
     11 O          22.8975   73.3515    0.4482 O.3     1  UNL1       -0.3308
     12 O          23.2244   70.3601   -1.1701 O.3     1  UNL1       -0.3794
     13 H          21.9677   69.2308    0.9535 H       1  UNL1        0.2106
     14 H          22.8719   69.4831   -0.9671 H       1  UNL1        0.2105
     15 N          22.6949   72.7053    2.7410 N.ar    1  UNL1       -0.2551
     16 C          21.4572   72.4332    3.1907 C.ar    1  UNL1        0.3323
     17 N          21.0713   72.8098    4.4241 N.ar    1  UNL1       -0.2743
     18 C          21.9209   73.4776    5.2281 C.ar    1  UNL1        0.2626
     19 C          23.2259   73.7761    4.7655 C.ar    1  UNL1        0.0795
     20 C          23.5885   73.3831    3.5259 C.ar    1  UNL1        0.0869
     21 O          20.6799   71.8311    2.4770 O.2     1  UNL1       -0.2464
     22 O          21.5709   73.8231    6.3429 O.2     1  UNL1       -0.2670
     23 H          20.1756   72.6013    4.7340 H       1  UNL1        0.1734
     24 O          21.5547   72.9710   -4.3221 O.3     1  UNL1       -0.2703
     25 P          20.5588   73.8059   -5.2714 P.3     1  UNL1        0.2208
     26 O          20.3230   75.1431   -4.6838 O.2     1  UNL1       -0.5170
     27 O          21.2209   73.9706   -6.7304 O.3     1  UNL1       -0.4371
     28 O          19.1593   73.0225   -5.4039 O.3     1  UNL1       -0.2858
     29 C          19.3853   71.6888   -4.9456 C.3     1  UNL1        0.2704
     30 C          18.7113   70.7015   -5.8996 C.3     1  UNL1        0.1967
     31 C          17.2113   71.0072   -5.9556 C.3     1  UNL1        0.1715
     32 C          16.6587   71.0134   -4.5259 C.3     1  UNL1        0.1694
     33 C          17.4879   71.9794   -3.6760 C.3     1  UNL1        0.1761
     34 O          19.2775   70.8344   -7.2046 O.3     1  UNL1       -0.3775
     35 O          16.5454   70.0045   -6.7260 O.3     1  UNL1       -0.3794
     36 O          16.7386   69.6972   -3.9771 O.3     1  UNL1       -0.3794
     37 O          18.8450   71.5408   -3.6345 O.3     1  UNL1       -0.3258
     38 H          20.2210   70.6406   -7.1204 H       1  UNL1        0.2106
     39 H          16.9318   70.0285   -7.6105 H       1  UNL1        0.2105
     40 H          16.2082   69.1241   -4.5459 H       1  UNL1        0.2105
     41 C          16.9228   72.0190   -2.2543 C.3     1  UNL1        0.1693
     42 O          15.9173   73.0304   -2.1703 O.3     1  UNL1       -0.3794
     43 H          15.5873   73.0222   -1.2613 H       1  UNL1        0.2105
@<TRIPOS>BOND
     1    15    16   ar
     2    15    20   ar
     3    15     6    1
     4    16    17   ar
     5    16    21    2
     6    17    18   ar
     7    17    23    1
     8    18    19   ar
     9    18    22    2
    10    19    20   ar
    11     6     7    1
    12     6    11    1
    13     7     8    1
    14     7     9    1
    15     8    13    1
    16     9    10    1
    17     9    12    1
    18    10    11    1
    19    10     5    1
    20    12    14    1
    21     5     4    1
    22     4     1    1
    23     1     2    2
    24     1     3    1
    25     1    24    1
    26    24    25    1
    27    25    26    2
    28    25    27    1
    29    25    28    1
    30    28    29    1
    31    29    30    1
    32    29    37    1
    33    30    31    1
    34    30    34    1
    35    31    32    1
    36    31    35    1
    37    32    33    1
    38    32    36    1
    39    33    41    1
    40    33    37    1
    41    41    42    1
    42    34    38    1
    43    35    39    1
    44    36    40    1
    45    42    43    1
@<TRIPOS>MOLECULE
GDU
 43 45 0 0 0
SMALL
GASTEIGER

@<TRIPOS>ATOM
      1 P          22.0604   70.8711   -0.2193 P.3     1  UNL1        0.2189
      2 O          23.3331   70.5304   -0.8928 O.2     1  UNL1       -0.5170
      3 O          21.5085   69.5803    0.5695 O.3     1  UNL1       -0.4371
      4 O          22.3085   72.0711    0.8225 O.3     1  UNL1       -0.3112
      5 C          21.4045   71.8686    1.9098 C.3     1  UNL1        0.1811
      6 C          23.6012   73.9439    3.8579 C.3     1  UNL1        0.2383
      7 C          22.2385   74.6821    3.8899 C.3     1  UNL1        0.1895
      8 O          22.0794   75.4063    5.1120 O.3     1  UNL1       -0.3779
      9 C          21.2301   73.5066    3.8083 C.3     1  UNL1        0.1713
     10 C          22.0517   72.3497    3.2097 C.3     1  UNL1        0.1764
     11 O          23.3718   72.8529    2.9411 O.3     1  UNL1       -0.3308
     12 O          20.7516   73.1675    5.1113 O.3     1  UNL1       -0.3794
     13 H          21.2162   75.8408    5.0683 H       1  UNL1        0.2106
     14 H          20.2988   73.9492    5.4556 H       1  UNL1        0.2105
     15 N          24.6564   74.8258    3.3565 N.ar    1  UNL1       -0.2551
     16 C          25.7122   75.1138    4.1380 C.ar    1  UNL1        0.3323
     17 N          26.6977   75.9191    3.6998 N.ar    1  UNL1       -0.2743
     18 C          26.6365   76.4602    2.4679 C.ar    1  UNL1        0.2626
     19 C          25.5276   76.1703    1.6357 C.ar    1  UNL1        0.0795
     20 C          24.5552   75.3562    2.0985 C.ar    1  UNL1        0.0869
     21 O          25.7815   74.6327    5.2515 O.2     1  UNL1       -0.2464
     22 O          27.5258   77.1930    2.0721 O.2     1  UNL1       -0.2670
     23 H          27.4544   76.1127    4.2757 H       1  UNL1        0.1734
     24 O          20.9779   71.3291   -1.3197 O.3     1  UNL1       -0.2703
     25 P          21.2176   70.4119   -2.6201 P.3     1  UNL1        0.2208
     26 O          22.5698   70.6694   -3.1627 O.2     1  UNL1       -0.5170
     27 O          21.0905   68.8590   -2.2121 O.3     1  UNL1       -0.4371
     28 O          20.1141   70.7640   -3.7374 O.3     1  UNL1       -0.2858
     29 C          18.9296   71.1552   -3.0419 C.3     1  UNL1        0.2704
     30 C          17.8720   70.0591   -3.1810 C.3     1  UNL1        0.1967
     31 C          17.5776   69.8360   -4.6676 C.3     1  UNL1        0.1715
     32 C          17.2091   71.1821   -5.3015 C.3     1  UNL1        0.1694
     33 C          18.3189   72.1933   -5.0030 C.3     1  UNL1        0.1761
     34 O          18.3591   68.8476   -2.6010 O.3     1  UNL1       -0.3775
     35 O          16.4884   68.9216   -4.8094 O.3     1  UNL1       -0.3794
     36 O          15.9739   71.6457   -4.7544 O.3     1  UNL1       -0.3794
     37 O          18.4381   72.3748   -3.5927 O.3     1  UNL1       -0.3258
     38 H          18.5374   69.0362   -1.6696 H       1  UNL1        0.2106
     39 H          16.7591   68.0964   -4.3876 H       1  UNL1        0.2105
     40 H          15.3079   70.9771   -4.9608 H       1  UNL1        0.2105
     41 C          17.9771   73.5321   -5.6608 C.3     1  UNL1        0.1693
     42 O          17.2024   73.2992   -6.8384 O.3     1  UNL1       -0.3794
     43 H          17.0079   74.1657   -7.2214 H       1  UNL1        0.2105
@<TRIPOS>BOND
     1    15    16   ar
     2    15    20   ar
     3    15     6    1
     4    16    17   ar
     5    16    21    2
     6    17    18   ar
     7    17    23    1
     8    18    19   ar
     9    18    22    2
    10    19    20   ar
    11     6     7    1
    12     6    11    1
    13     7     8    1
    14     7     9    1
    15     8    13    1
    16     9    10    1
    17     9    12    1
    18    10    11    1
    19    10     5    1
    20    12    14    1
    21     5     4    1
    22     4     1    1
    23     1     2    2
    24     1     3    1
    25     1    24    1
    26    24    25    1
    27    25    26    2
    28    25    27    1
    29    25    28    1
    30    28    29    1
    31    29    30    1
    32    29    37    1
    33    30    31    1
    34    30    34    1
    35    31    32    1
    36    31    35    1
    37    32    33    1
    38    32    36    1
    39    33    41    1
    40    33    37    1
    41    41    42    1
    42    34    38    1
    43    35    39    1
    44    36    40    1
    45    42    43    1
@<TRIPOS>MOLECULE
GDU
 43 45 0 0 0
SMALL
GASTEIGER

@<TRIPOS>ATOM
      1 P          22.5100   71.7124   -3.4811 P.3     1  UNL1        0.2189
      2 O          23.4996   70.6338   -3.2647 O.2     1  UNL1       -0.5170
      3 O          21.0385   71.0719   -3.6131 O.3     1  UNL1       -0.4371
      4 O          22.5429   72.7293   -2.2354 O.3     1  UNL1       -0.3112
      5 C          22.0301   72.0185   -1.1074 C.3     1  UNL1        0.1811
      6 C          20.6443   73.8268    1.6741 C.3     1  UNL1        0.2383
      7 C          21.4193   74.8960    0.8621 C.3     1  UNL1        0.1895
      8 O          20.8040   76.1797    0.9916 O.3     1  UNL1       -0.3779
      9 C          21.2860   74.3624   -0.5880 C.3     1  UNL1        0.1713
     10 C          20.9661   72.8668   -0.4085 C.3     1  UNL1        0.1764
     11 O          20.9717   72.5915    1.0030 O.3     1  UNL1       -0.3308
     12 O          20.2225   75.0300   -1.2701 O.3     1  UNL1       -0.3794
     13 H          21.3321   76.7964    0.4657 H       1  UNL1        0.2106
     14 H          20.4533   75.9684   -1.2984 H       1  UNL1        0.2105
     15 N          21.1050   73.7970    3.0632 N.ar    1  UNL1       -0.2551
     16 C          20.2065   73.7950    4.0638 C.ar    1  UNL1        0.3323
     17 N          20.6036   73.7643    5.3496 N.ar    1  UNL1       -0.2743
     18 C          21.9151   73.7448    5.6560 C.ar    1  UNL1        0.2626
     19 C          22.8728   73.7523    4.6125 C.ar    1  UNL1        0.0795
     20 C          22.4472   73.7790    3.3316 C.ar    1  UNL1        0.0869
     21 O          19.0201   73.8119    3.8029 O.2     1  UNL1       -0.2464
     22 O          22.2755   73.7218    6.8197 O.2     1  UNL1       -0.2670
     23 H          19.9414   73.7590    6.0590 H       1  UNL1        0.1734
     24 O          22.8711   72.5072   -4.8340 O.3     1  UNL1       -0.2703
     25 P          21.5239   73.2437   -5.3164 P.3     1  UNL1        0.2208
     26 O          20.8368   73.8312   -4.1452 O.2     1  UNL1       -0.5170
     27 O          21.8957   74.4115   -6.3614 O.3     1  UNL1       -0.4371
     28 O          20.5533   72.1762   -6.0294 O.3     1  UNL1       -0.2858
     29 C          19.3585   72.8737   -6.3838 C.3     1  UNL1        0.2704
     30 C          18.1559   72.1854   -5.7361 C.3     1  UNL1        0.1967
     31 C          18.0958   70.7317   -6.2151 C.3     1  UNL1        0.1715
     32 C          18.1066   70.7199   -7.7479 C.3     1  UNL1        0.1694
     33 C          19.3150   71.5183   -8.2433 C.3     1  UNL1        0.1761
     34 O          18.2947   72.2171   -4.3145 O.3     1  UNL1       -0.3775
     35 O          16.8975   70.1175   -5.7363 O.3     1  UNL1       -0.3794
     36 O          16.9030   71.3118   -8.2387 O.3     1  UNL1       -0.3794
     37 O          19.2117   72.8713   -7.8019 O.3     1  UNL1       -0.3258
     38 H          18.3356   73.1487   -4.0589 H       1  UNL1        0.2106
     39 H          16.9282   70.1581   -4.7721 H       1  UNL1        0.2105
     40 H          16.1710   70.7812   -7.8981 H       1  UNL1        0.2105
     41 C          19.3545   71.4841   -9.7727 C.3     1  UNL1        0.1693
     42 O          18.5025   72.5060  -10.2933 O.3     1  UNL1       -0.3794
     43 H          18.5564   72.4511  -11.2574 H       1  UNL1        0.2105
@<TRIPOS>BOND
     1    15    16   ar
     2    15    20   ar
     3    15     6    1
     4    16    17   ar
     5    16    21    2
     6    17    18   ar
     7    17    23    1
     8    18    19   ar
     9    18    22    2
    10    19    20   ar
    11     6     7    1
    12     6    11    1
    13     7     8    1
    14     7     9    1
    15     8    13    1
    16     9    10    1
    17     9    12    1
    18    10    11    1
    19    10     5    1
    20    12    14    1
    21     5     4    1
    22     4     1    1
    23     1     2    2
    24     1     3    1
    25     1    24    1
    26    24    25    1
    27    25    26    2
    28    25    27    1
    29    25    28    1
    30    28    29    1
    31    29    30    1
    32    29    37    1
    33    30    31    1
    34    30    34    1
    35    31    32    1
    36    31    35    1
    37    32    33    1
    38    32    36    1
    39    33    41    1
    40    33    37    1
    41    41    42    1
    42    34    38    1
    43    35    39    1
    44    36    40    1
    45    42    43    1
@<TRIPOS>MOLECULE
GDU
 43 45 0 0 0
SMALL
GASTEIGER

@<TRIPOS>ATOM
      1 P          21.4123   72.2511   -0.5649 P.3     1  UNL1        0.2189
      2 O          22.4541   71.2172   -0.3771 O.2     1  UNL1       -0.5170
      3 O          22.0192   73.4758   -1.4162 O.3     1  UNL1       -0.4371
      4 O          20.1622   71.6169   -1.3534 O.3     1  UNL1       -0.3112
      5 C          20.2430   72.0838   -2.7010 C.3     1  UNL1        0.1811
      6 C          17.9654   71.3360   -5.3807 C.3     1  UNL1        0.2383
      7 C          17.9785   70.0524   -4.5116 C.3     1  UNL1        0.1895
      8 O          16.7169   69.3832   -4.5714 O.3     1  UNL1       -0.3779
      9 C          18.2350   70.6234   -3.0927 C.3     1  UNL1        0.1713
     10 C          18.8614   72.0060   -3.3532 C.3     1  UNL1        0.1764
     11 O          18.9842   72.1616   -4.7776 O.3     1  UNL1       -0.3308
     12 O          17.0056   70.7509   -2.3757 O.3     1  UNL1       -0.3794
     13 H          16.7915   68.5970   -4.0126 H       1  UNL1        0.2106
     14 H          16.6341   69.8618   -2.2964 H       1  UNL1        0.2105
     15 N          18.3087   71.0248   -6.7693 N.ar    1  UNL1       -0.2551
     16 C          17.3336   70.7325   -7.6479 C.ar    1  UNL1        0.3323
     17 N          17.6221   70.4464   -8.9312 N.ar    1  UNL1       -0.2743
     18 C          18.9005   70.4387   -9.3553 C.ar    1  UNL1        0.2626
     19 C          19.9385   70.7390   -8.4396 C.ar    1  UNL1        0.0795
     20 C          19.6210   71.0266   -7.1594 C.ar    1  UNL1        0.0869
     21 O          16.1757   70.7360   -7.2801 O.2     1  UNL1       -0.2464
     22 O          19.1629   70.1751  -10.5156 O.2     1  UNL1       -0.2670
     23 H          16.9054   70.2419   -9.5527 H       1  UNL1        0.1734
     24 O          20.9252   72.7881    0.8728 O.3     1  UNL1       -0.2703
     25 P          22.2490   73.0137    1.7597 P.3     1  UNL1        0.2208
     26 O          22.7458   71.7073    2.2451 O.2     1  UNL1       -0.5170
     27 O          23.3840   73.7180    0.8597 O.3     1  UNL1       -0.4371
     28 O          21.9002   73.9568    3.0162 O.3     1  UNL1       -0.2858
     29 C          22.6528   73.4648    4.1259 C.3     1  UNL1        0.2704
     30 C          21.9137   73.7877    5.4255 C.3     1  UNL1        0.1967
     31 C          21.7264   75.3044    5.5289 C.3     1  UNL1        0.1715
     32 C          23.0938   75.9790    5.3712 C.3     1  UNL1        0.1694
     33 C          23.7429   75.4910    4.0737 C.3     1  UNL1        0.1761
     34 O          20.6376   73.1453    5.4226 O.3     1  UNL1       -0.3775
     35 O          21.1700   75.6337    6.8035 O.3     1  UNL1       -0.3794
     36 O          23.9243   75.6411    6.4831 O.3     1  UNL1       -0.3794
     37 O          23.9393   74.0791    4.1351 O.3     1  UNL1       -0.3258
     38 H          20.8034   72.1956    5.3490 H       1  UNL1        0.2106
     39 H          20.3198   75.1800    6.8634 H       1  UNL1        0.2105
     40 H          23.4746   75.9615    7.2758 H       1  UNL1        0.2105
     41 C          25.0944   76.1848    3.8893 C.3     1  UNL1        0.1693
     42 O          25.0172   77.0911    2.7876 O.3     1  UNL1       -0.3794
     43 H          25.8865   77.5070    2.7059 H       1  UNL1        0.2105
@<TRIPOS>BOND
     1    15    16   ar
     2    15    20   ar
     3    15     6    1
     4    16    17   ar
     5    16    21    2
     6    17    18   ar
     7    17    23    1
     8    18    19   ar
     9    18    22    2
    10    19    20   ar
    11     6     7    1
    12     6    11    1
    13     7     8    1
    14     7     9    1
    15     8    13    1
    16     9    10    1
    17     9    12    1
    18    10    11    1
    19    10     5    1
    20    12    14    1
    21     5     4    1
    22     4     1    1
    23     1     2    2
    24     1     3    1
    25     1    24    1
    26    24    25    1
    27    25    26    2
    28    25    27    1
    29    25    28    1
    30    28    29    1
    31    29    30    1
    32    29    37    1
    33    30    31    1
    34    30    34    1
    35    31    32    1
    36    31    35    1
    37    32    33    1
    38    32    36    1
    39    33    41    1
    40    33    37    1
    41    41    42    1
    42    34    38    1
    43    35    39    1
    44    36    40    1
    45    42    43    1
@<TRIPOS>MOLECULE
GDU
 43 45 0 0 0
SMALL
GASTEIGER

@<TRIPOS>ATOM
      1 P          22.8335   71.2414   -2.0862 P.3     1  UNL1        0.2189
      2 O          23.4459   70.9521   -3.4018 O.2     1  UNL1       -0.5170
      3 O          23.1251   72.7730   -1.6837 O.3     1  UNL1       -0.4371
      4 O          21.2453   71.0013   -2.1687 O.3     1  UNL1       -0.3112
      5 C          20.8403   71.3626   -3.4900 C.3     1  UNL1        0.1811
      6 C          17.6927   71.9038   -5.1414 C.3     1  UNL1        0.2383
      7 C          17.9599   70.3853   -5.3013 C.3     1  UNL1        0.1895
      8 O          16.7329   69.6531   -5.3427 O.3     1  UNL1       -0.3779
      9 C          18.7561   70.0579   -4.0113 C.3     1  UNL1        0.1713
     10 C          19.3132   71.4206   -3.5594 C.3     1  UNL1        0.1764
     11 O          18.9052   72.3970   -4.5332 O.3     1  UNL1       -0.3308
     12 O          17.8904   69.5087   -3.0158 O.3     1  UNL1       -0.3794
     13 H          16.9681   68.7202   -5.4431 H       1  UNL1        0.2106
     14 H          17.5284   68.6898   -3.3804 H       1  UNL1        0.2105
     15 N          17.4775   72.5320   -6.4460 N.ar    1  UNL1       -0.2551
     16 C          18.5003   72.6363   -7.3127 C.ar    1  UNL1        0.3323
     17 N          18.3283   73.2064   -8.5199 N.ar    1  UNL1       -0.2743
     18 C          17.1242   73.6931   -8.8767 C.ar    1  UNL1        0.2626
     19 C          16.0390   73.5954   -7.9717 C.ar    1  UNL1        0.0795
     20 C          16.2380   73.0151   -6.7691 C.ar    1  UNL1        0.0869
     21 O          19.5923   72.2014   -7.0051 O.2     1  UNL1       -0.2464
     22 O          16.9687   74.2135   -9.9674 O.2     1  UNL1       -0.2670
     23 H          19.0766   73.2693   -9.1347 H       1  UNL1        0.1734
     24 O          23.4679   70.2655   -0.9737 O.3     1  UNL1       -0.2703
     25 P          22.5949   70.4540    0.3650 P.3     1  UNL1        0.2208
     26 O          21.2504   69.8703    0.1631 O.2     1  UNL1       -0.5170
     27 O          23.3249   69.7072    1.5911 O.3     1  UNL1       -0.4371
     28 O          22.4555   72.0220    0.6998 O.3     1  UNL1       -0.2858
     29 C          21.1574   72.2121    1.2640 C.3     1  UNL1        0.2704
     30 C          20.5955   73.5589    0.8063 C.3     1  UNL1        0.1967
     31 C          21.5473   74.6735    1.2516 C.3     1  UNL1        0.1715
     32 C          21.7820   74.5436    2.7607 C.3     1  UNL1        0.1694
     33 C          22.2562   73.1215    3.0701 C.3     1  UNL1        0.1761
     34 O          20.4769   73.5691   -0.6175 O.3     1  UNL1       -0.3775
     35 O          20.9653   75.9462    0.9615 O.3     1  UNL1       -0.3794
     36 O          20.5641   74.8088    3.4583 O.3     1  UNL1       -0.3794
     37 O          21.2507   72.1846    2.6864 O.3     1  UNL1       -0.3258
     38 H          19.8761   72.8489   -0.8526 H       1  UNL1        0.2106
     39 H          20.8248   75.9786    0.0068 H       1  UNL1        0.2105
     40 H          20.3011   75.7098    3.2297 H       1  UNL1        0.2105
     41 C          22.5264   72.9910    4.5708 C.3     1  UNL1        0.1693
     42 O          21.2904   72.8028    5.2619 O.3     1  UNL1       -0.3794
     43 H          21.5044   72.7245    6.2018 H       1  UNL1        0.2105
@<TRIPOS>BOND
     1    15    16   ar
     2    15    20   ar
     3    15     6    1
     4    16    17   ar
     5    16    21    2
     6    17    18   ar
     7    17    23    1
     8    18    19   ar
     9    18    22    2
    10    19    20   ar
    11     6     7    1
    12     6    11    1
    13     7     8    1
    14     7     9    1
    15     8    13    1
    16     9    10    1
    17     9    12    1
    18    10    11    1
    19    10     5    1
    20    12    14    1
    21     5     4    1
    22     4     1    1
    23     1     2    2
    24     1     3    1
    25     1    24    1
    26    24    25    1
    27    25    26    2
    28    25    27    1
    29    25    28    1
    30    28    29    1
    31    29    30    1
    32    29    37    1
    33    30    31    1
    34    30    34    1
    35    31    32    1
    36    31    35    1
    37    32    33    1
    38    32    36    1
    39    33    41    1
    40    33    37    1
    41    41    42    1
    42    34    38    1
    43    35    39    1
    44    36    40    1
    45    42    43    1
@<TRIPOS>MOLECULE
GDU
 43 45 0 0 0
SMALL
GASTEIGER

@<TRIPOS>ATOM
      1 P          19.5600   69.7131   -3.1713 P.3     1  UNL1        0.2189
      2 O          19.5765   69.9601   -1.7124 O.2     1  UNL1       -0.5170
      3 O          18.7995   68.3260   -3.4721 O.3     1  UNL1       -0.4371
      4 O          18.7924   70.9173   -3.9112 O.3     1  UNL1       -0.3112
      5 C          18.1385   70.3538   -5.0494 C.3     1  UNL1        0.1811
      6 C          18.9642   72.9393   -7.4075 C.3     1  UNL1        0.2383
      7 C          18.7838   71.6662   -8.2733 C.3     1  UNL1        0.1895
      8 O          18.2990   71.9998   -9.5759 O.3     1  UNL1       -0.3779
      9 C          17.7167   70.8765   -7.4715 C.3     1  UNL1        0.1713
     10 C          17.8072   71.4624   -6.0501 C.3     1  UNL1        0.1764
     11 O          18.8570   72.4453   -6.0555 O.3     1  UNL1       -0.3308
     12 O          16.4168   71.0893   -8.0256 O.3     1  UNL1       -0.3794
     13 H          18.2094   71.1680  -10.0616 H       1  UNL1        0.2106
     14 H          16.4412   70.7562   -8.9329 H       1  UNL1        0.2105
     15 N          20.2804   73.5382   -7.6350 N.ar    1  UNL1       -0.2551
     16 C          21.3212   72.7543   -7.9675 C.ar    1  UNL1        0.3323
     17 N          22.5410   73.2802   -8.1855 N.ar    1  UNL1       -0.2743
     18 C          22.7414   74.6065   -8.0636 C.ar    1  UNL1        0.2626
     19 C          21.6555   75.4438   -7.7084 C.ar    1  UNL1        0.0795
     20 C          20.4418   74.8909   -7.4996 C.ar    1  UNL1        0.0869
     21 O          21.1557   71.5561   -8.0816 O.2     1  UNL1       -0.2464
     22 O          23.8462   75.0828   -8.2561 O.2     1  UNL1       -0.2670
     23 H          23.2799   72.7000   -8.4288 H       1  UNL1        0.1734
     24 O          21.0723   69.6235   -3.7165 O.3     1  UNL1       -0.2703
     25 P          21.9671   70.5664   -2.7677 P.3     1  UNL1        0.2208
     26 O          21.8337   70.1210   -1.3631 O.2     1  UNL1       -0.5170
     27 O          23.5108   70.4689   -3.2167 O.3     1  UNL1       -0.4371
     28 O          21.4668   72.0904   -2.8982 O.3     1  UNL1       -0.2858
     29 C          21.6193   72.6890   -1.6105 C.3     1  UNL1        0.2704
     30 C          20.4799   73.6811   -1.3721 C.3     1  UNL1        0.1967
     31 C          20.5092   74.7476   -2.4712 C.3     1  UNL1        0.1715
     32 C          21.9118   75.3642   -2.5184 C.3     1  UNL1        0.1694
     33 C          22.9432   74.2437   -2.6720 C.3     1  UNL1        0.1761
     34 O          19.2294   72.9910   -1.4060 O.3     1  UNL1       -0.3775
     35 O          19.5455   75.7624   -2.1813 O.3     1  UNL1       -0.3794
     36 O          22.1580   76.0844   -1.3098 O.3     1  UNL1       -0.3794
     37 O          22.8721   73.3667   -1.5488 O.3     1  UNL1       -0.3258
     38 H          19.2583   72.3265   -0.7042 H       1  UNL1        0.2106
     39 H          18.6834   75.3288   -2.1496 H       1  UNL1        0.2105
     40 H          21.4835   76.7737   -1.2523 H       1  UNL1        0.2105
     41 C          24.3453   74.8513   -2.7547 C.3     1  UNL1        0.1693
     42 O          25.0916   74.1876   -3.7763 O.3     1  UNL1       -0.3794
     43 H          25.9663   74.5996   -3.7963 H       1  UNL1        0.2105
@<TRIPOS>BOND
     1    15    16   ar
     2    15    20   ar
     3    15     6    1
     4    16    17   ar
     5    16    21    2
     6    17    18   ar
     7    17    23    1
     8    18    19   ar
     9    18    22    2
    10    19    20   ar
    11     6     7    1
    12     6    11    1
    13     7     8    1
    14     7     9    1
    15     8    13    1
    16     9    10    1
    17     9    12    1
    18    10    11    1
    19    10     5    1
    20    12    14    1
    21     5     4    1
    22     4     1    1
    23     1     2    2
    24     1     3    1
    25     1    24    1
    26    24    25    1
    27    25    26    2
    28    25    27    1
    29    25    28    1
    30    28    29    1
    31    29    30    1
    32    29    37    1
    33    30    31    1
    34    30    34    1
    35    31    32    1
    36    31    35    1
    37    32    33    1
    38    32    36    1
    39    33    41    1
    40    33    37    1
    41    41    42    1
    42    34    38    1
    43    35    39    1
    44    36    40    1
    45    42    43    1
@<TRIPOS>MOLECULE
GDU
 43 45 0 0 0
SMALL
GASTEIGER

@<TRIPOS>ATOM
      1 P          20.1580   71.4201   -3.1021 P.3     1  UNL1        0.2189
      2 O          21.0825   71.2726   -4.2481 O.2     1  UNL1       -0.5170
      3 O          20.2594   70.1182   -2.1599 O.3     1  UNL1       -0.4371
      4 O          20.5570   72.7279   -2.2552 O.3     1  UNL1       -0.3112
      5 C          20.4768   72.3676   -0.8752 C.3     1  UNL1        0.1811
      6 C          22.9043   72.3646    1.7770 C.3     1  UNL1        0.2383
      7 C          22.4711   70.8822    1.6444 C.3     1  UNL1        0.1895
      8 O          23.5434   70.0042    1.9945 O.3     1  UNL1       -0.3779
      9 C          22.1390   70.7747    0.1333 C.3     1  UNL1        0.1713
     10 C          21.8873   72.2311   -0.2991 C.3     1  UNL1        0.1764
     11 O          22.0190   73.0567    0.8710 O.3     1  UNL1       -0.3308
     12 O          23.2430   70.2169   -0.5823 O.3     1  UNL1       -0.3794
     13 H          23.2100   69.1020    1.8916 H       1  UNL1        0.2106
     14 H          23.3880   69.3297   -0.2265 H       1  UNL1        0.2105
     15 N          22.7131   72.8395    3.1484 N.ar    1  UNL1       -0.2551
     16 C          21.5321   72.6473    3.7621 C.ar    1  UNL1        0.3323
     17 N          21.3314   73.0710    5.0238 N.ar    1  UNL1       -0.2743
     18 C          22.3131   73.7067    5.6919 C.ar    1  UNL1        0.2626
     19 C          23.5605   73.9213    5.0561 C.ar    1  UNL1        0.0795
     20 C          23.7364   73.4824    3.7916 C.ar    1  UNL1        0.0869
     21 O          20.6373   72.0749    3.1723 O.2     1  UNL1       -0.2464
     22 O          22.1308   74.0948    6.8324 O.2     1  UNL1       -0.2670
     23 H          20.4741   72.9199    5.4528 H       1  UNL1        0.1734
     24 O          18.6502   71.5709   -3.6462 O.3     1  UNL1       -0.2703
     25 P          18.3513   70.2783   -4.5571 P.3     1  UNL1        0.2208
     26 O          18.9037   69.0734   -3.8996 O.2     1  UNL1       -0.5170
     27 O          16.7603   70.1073   -4.7401 O.3     1  UNL1       -0.4371
     28 O          19.0390   70.4665   -5.9999 O.3     1  UNL1       -0.2858
     29 C          18.3987   71.5809   -6.6226 C.3     1  UNL1        0.2704
     30 C          17.7804   71.1368   -7.9492 C.3     1  UNL1        0.1967
     31 C          18.8841   70.5744   -8.8502 C.3     1  UNL1        0.1715
     32 C          20.0002   71.6184   -8.9679 C.3     1  UNL1        0.1694
     33 C          20.4518   72.0247   -7.5630 C.3     1  UNL1        0.1761
     34 O          16.7986   70.1278   -7.7056 O.3     1  UNL1       -0.3775
     35 O          18.3492   70.2917  -10.1451 O.3     1  UNL1       -0.3794
     36 O          19.5114   72.7635   -9.6678 O.3     1  UNL1       -0.3794
     37 O          19.3587   72.6088   -6.8560 O.3     1  UNL1       -0.3258
     38 H          16.1294   70.5228   -7.1303 H       1  UNL1        0.2106
     39 H          17.6455   69.6422  -10.0215 H       1  UNL1        0.2105
     40 H          19.2339   72.4600  -10.5419 H       1  UNL1        0.2105
     41 C          21.5902   73.0420   -7.6693 C.3     1  UNL1        0.1693
     42 O          22.1772   72.9645   -8.9695 O.3     1  UNL1       -0.3794
     43 H          22.8877   73.6201   -8.9953 H       1  UNL1        0.2105
@<TRIPOS>BOND
     1    15    16   ar
     2    15    20   ar
     3    15     6    1
     4    16    17   ar
     5    16    21    2
     6    17    18   ar
     7    17    23    1
     8    18    19   ar
     9    18    22    2
    10    19    20   ar
    11     6     7    1
    12     6    11    1
    13     7     8    1
    14     7     9    1
    15     8    13    1
    16     9    10    1
    17     9    12    1
    18    10    11    1
    19    10     5    1
    20    12    14    1
    21     5     4    1
    22     4     1    1
    23     1     2    2
    24     1     3    1
    25     1    24    1
    26    24    25    1
    27    25    26    2
    28    25    27    1
    29    25    28    1
    30    28    29    1
    31    29    30    1
    32    29    37    1
    33    30    31    1
    34    30    34    1
    35    31    32    1
    36    31    35    1
    37    32    33    1
    38    32    36    1
    39    33    41    1
    40    33    37    1
    41    41    42    1
    42    34    38    1
    43    35    39    1
    44    36    40    1
    45    42    43    1
@<TRIPOS>MOLECULE
GDU
 43 45 0 0 0
SMALL
GASTEIGER

@<TRIPOS>ATOM
      1 P          22.3162   71.8692   -3.7193 P.3     1  UNL1        0.2189
      2 O          23.3367   70.9130   -3.2357 O.2     1  UNL1       -0.5170
      3 O          20.9320   71.0894   -3.9821 O.3     1  UNL1       -0.4371
      4 O          22.0856   73.0137   -2.6131 O.3     1  UNL1       -0.3112
      5 C          21.5541   72.3686   -1.4547 C.3     1  UNL1        0.1811
      6 C          22.9572   72.3841    1.8556 C.3     1  UNL1        0.2383
      7 C          22.4183   70.9428    1.6682 C.3     1  UNL1        0.1895
      8 O          23.2035   70.0046    2.4074 O.3     1  UNL1       -0.3779
      9 C          22.5907   70.7274    0.1420 C.3     1  UNL1        0.1713
     10 C          22.6703   72.1546   -0.4307 C.3     1  UNL1        0.1764
     11 O          22.5077   73.0690    0.6672 O.3     1  UNL1       -0.3308
     12 O          23.7937   70.0050   -0.1278 O.3     1  UNL1       -0.3794
     13 H          22.8175   69.1318    2.2490 H       1  UNL1        0.2106
     14 H          23.7071   69.1449    0.3052 H       1  UNL1        0.2105
     15 N          22.3841   72.9996    3.0537 N.ar    1  UNL1       -0.2551
     16 C          23.1850   73.6445    3.9203 C.ar    1  UNL1        0.3323
     17 N          22.6829   74.2221    5.0276 N.ar    1  UNL1       -0.2743
     18 C          21.3638   74.1543    5.2914 C.ar    1  UNL1        0.2626
     19 C          20.5089   73.4733    4.3905 C.ar    1  UNL1        0.0795
     20 C          21.0381   72.9066    3.2854 C.ar    1  UNL1        0.0869
     21 O          24.3769   73.7144    3.6955 O.2     1  UNL1       -0.2464
     22 O          20.9091   74.6727    6.2959 O.2     1  UNL1       -0.2670
     23 H          23.2750   74.6872    5.6399 H       1  UNL1        0.1734
     24 O          22.8205   72.5419   -5.0925 O.3     1  UNL1       -0.2703
     25 P          21.5535   73.2988   -5.7342 P.3     1  UNL1        0.2208
     26 O          20.9061   74.1385   -4.7022 O.2     1  UNL1       -0.5170
     27 O          22.0457   74.2306   -6.9523 O.3     1  UNL1       -0.4371
     28 O          20.4997   72.2130   -6.2826 O.3     1  UNL1       -0.2858
     29 C          19.3141   72.9269   -6.6355 C.3     1  UNL1        0.2704
     30 C          18.1086   72.2829   -5.9489 C.3     1  UNL1        0.1967
     31 C          18.0088   70.8185   -6.3870 C.3     1  UNL1        0.1715
     32 C          17.9923   70.7653   -7.9189 C.3     1  UNL1        0.1694
     33 C          19.2087   71.5233   -8.4563 C.3     1  UNL1        0.1761
     34 O          18.2731   72.3498   -4.5313 O.3     1  UNL1       -0.3775
     35 O          16.8061   70.2439   -5.8713 O.3     1  UNL1       -0.3794
     36 O          16.7933   71.3701   -8.4051 O.3     1  UNL1       -0.3794
     37 O          19.1424   72.8896   -8.0503 O.3     1  UNL1       -0.3258
     38 H          18.3385   73.2868   -4.3019 H       1  UNL1        0.2106
     39 H          16.8547   70.3097   -4.9092 H       1  UNL1        0.2105
     40 H          16.0562   70.8651   -8.0377 H       1  UNL1        0.2105
     41 C          19.2205   71.4472   -9.9847 C.3     1  UNL1        0.1693
     42 O          18.6308   70.2153  -10.4040 O.3     1  UNL1       -0.3794
     43 H          18.6570   70.2072  -11.3707 H       1  UNL1        0.2105
@<TRIPOS>BOND
     1    15    16   ar
     2    15    20   ar
     3    15     6    1
     4    16    17   ar
     5    16    21    2
     6    17    18   ar
     7    17    23    1
     8    18    19   ar
     9    18    22    2
    10    19    20   ar
    11     6     7    1
    12     6    11    1
    13     7     8    1
    14     7     9    1
    15     8    13    1
    16     9    10    1
    17     9    12    1
    18    10    11    1
    19    10     5    1
    20    12    14    1
    21     5     4    1
    22     4     1    1
    23     1     2    2
    24     1     3    1
    25     1    24    1
    26    24    25    1
    27    25    26    2
    28    25    27    1
    29    25    28    1
    30    28    29    1
    31    29    30    1
    32    29    37    1
    33    30    31    1
    34    30    34    1
    35    31    32    1
    36    31    35    1
    37    32    33    1
    38    32    36    1
    39    33    41    1
    40    33    37    1
    41    41    42    1
    42    34    38    1
    43    35    39    1
    44    36    40    1
    45    42    43    1
@<TRIPOS>MOLECULE
GDU
 43 45 0 0 0
SMALL
GASTEIGER

@<TRIPOS>ATOM
      1 P          19.7325   69.9478   -3.0735 P.3     1  UNL1        0.2189
      2 O          19.9865   69.9239   -1.6159 O.2     1  UNL1       -0.5170
      3 O          19.3329   68.4700   -3.5728 O.3     1  UNL1       -0.4371
      4 O          18.5287   70.9657   -3.3922 O.3     1  UNL1       -0.3112
      5 C          17.6230   70.2778   -4.2565 C.3     1  UNL1        0.1811
      6 C          18.4326   72.3386   -7.0893 C.3     1  UNL1        0.2383
      7 C          18.2415   70.9193   -7.6826 C.3     1  UNL1        0.1895
      8 O          17.7454   70.9888   -9.0214 O.3     1  UNL1       -0.3779
      9 C          17.1800   70.3094   -6.7305 C.3     1  UNL1        0.1713
     10 C          17.2850   71.1662   -5.4551 C.3     1  UNL1        0.1764
     11 O          18.3368   72.1241   -5.6652 O.3     1  UNL1       -0.3308
     12 O          15.8756   70.4127   -7.3047 O.3     1  UNL1       -0.3794
     13 H          17.6494   70.0773   -9.3309 H       1  UNL1        0.2106
     14 H          15.8909   69.9055   -8.1276 H       1  UNL1        0.2105
     15 N          19.7480   72.8749   -7.4428 N.ar    1  UNL1       -0.2551
     16 C          20.7646   72.0329   -7.6988 C.ar    1  UNL1        0.3323
     17 N          21.9830   72.5000   -8.0295 N.ar    1  UNL1       -0.2743
     18 C          22.2065   73.8264   -8.1000 C.ar    1  UNL1        0.2626
     19 C          21.1465   74.7254   -7.8272 C.ar    1  UNL1        0.0795
     20 C          19.9335   74.2300   -7.5021 C.ar    1  UNL1        0.0869
     21 O          20.5780   70.8338   -7.6398 O.2     1  UNL1       -0.2464
     22 O          23.3102   74.2502   -8.3945 O.2     1  UNL1       -0.2670
     23 H          22.7041   71.8778   -8.2153 H       1  UNL1        0.1734
     24 O          21.0629   70.4307   -3.8412 O.3     1  UNL1       -0.2703
     25 P          22.1242   70.8606   -2.7103 P.3     1  UNL1        0.2208
     26 O          21.8481   70.1114   -1.4647 O.2     1  UNL1       -0.5170
     27 O          23.6152   70.5247   -3.2186 O.3     1  UNL1       -0.4371
     28 O          21.9981   72.4398   -2.4270 O.3     1  UNL1       -0.2858
     29 C          21.2551   72.9979   -3.5116 C.3     1  UNL1        0.2704
     30 C          22.2201   73.6097   -4.5283 C.3     1  UNL1        0.1967
     31 C          23.0573   74.6886   -3.8344 C.3     1  UNL1        0.1715
     32 C          22.1092   75.6830   -3.1547 C.3     1  UNL1        0.1694
     33 C          21.1532   74.9133   -2.2399 C.3     1  UNL1        0.1761
     34 O          23.0803   72.5923   -5.0442 O.3     1  UNL1       -0.3775
     35 O          23.8589   75.3703   -4.8016 O.3     1  UNL1       -0.3794
     36 O          21.3637   76.3879   -4.1482 O.3     1  UNL1       -0.3794
     37 O          20.3743   74.0028   -3.0145 O.3     1  UNL1       -0.3258
     38 H          22.5116   71.9329   -5.4645 H       1  UNL1        0.2106
     39 H          24.4287   74.7067   -5.2106 H       1  UNL1        0.2105
     40 H          22.0048   76.8515   -4.7027 H       1  UNL1        0.2105
     41 C          20.2242   75.9005   -1.5297 C.3     1  UNL1        0.1693
     42 O          20.9839   77.0168   -1.0630 O.3     1  UNL1       -0.3794
     43 H          20.3629   77.6138   -0.6234 H       1  UNL1        0.2105
@<TRIPOS>BOND
     1    15    16   ar
     2    15    20   ar
     3    15     6    1
     4    16    17   ar
     5    16    21    2
     6    17    18   ar
     7    17    23    1
     8    18    19   ar
     9    18    22    2
    10    19    20   ar
    11     6     7    1
    12     6    11    1
    13     7     8    1
    14     7     9    1
    15     8    13    1
    16     9    10    1
    17     9    12    1
    18    10    11    1
    19    10     5    1
    20    12    14    1
    21     5     4    1
    22     4     1    1
    23     1     2    2
    24     1     3    1
    25     1    24    1
    26    24    25    1
    27    25    26    2
    28    25    27    1
    29    25    28    1
    30    28    29    1
    31    29    30    1
    32    29    37    1
    33    30    31    1
    34    30    34    1
    35    31    32    1
    36    31    35    1
    37    32    33    1
    38    32    36    1
    39    33    41    1
    40    33    37    1
    41    41    42    1
    42    34    38    1
    43    35    39    1
    44    36    40    1
    45    42    43    1
@<TRIPOS>MOLECULE
GDU
 43 45 0 0 0
SMALL
GASTEIGER

@<TRIPOS>ATOM
      1 P          20.6990   70.7404   -2.1095 P.3     1  UNL1        0.2189
      2 O          21.4666   70.2309   -3.2674 O.2     1  UNL1       -0.5170
      3 O          21.1710   72.2424   -1.7718 O.3     1  UNL1       -0.4371
      4 O          19.1298   70.7375   -2.4622 O.3     1  UNL1       -0.3112
      5 C          18.9671   71.5412   -3.6319 C.3     1  UNL1        0.1811
      6 C          16.4228   71.8441   -6.1542 C.3     1  UNL1        0.2383
      7 C          17.0900   70.4738   -6.4371 C.3     1  UNL1        0.1895
      8 O          16.1504   69.5558   -7.0007 O.3     1  UNL1       -0.3779
      9 C          17.5204   70.0227   -5.0171 C.3     1  UNL1        0.1713
     10 C          17.5649   71.3311   -4.2062 C.3     1  UNL1        0.1764
     11 O          17.2389   72.4058   -5.1044 O.3     1  UNL1       -0.3308
     12 O          16.5602   69.1182   -4.4678 O.3     1  UNL1       -0.3794
     13 H          16.6264   68.7275   -7.1525 H       1  UNL1        0.2106
     14 H          16.5360   68.3473   -5.0508 H       1  UNL1        0.2105
     15 N          16.4588   72.6936   -7.3458 N.ar    1  UNL1       -0.2551
     16 C          17.4933   72.6009   -8.1999 C.ar    1  UNL1        0.3323
     17 N          17.5488   73.3679   -9.3047 N.ar    1  UNL1       -0.2743
     18 C          16.5680   74.2526   -9.5683 C.ar    1  UNL1        0.2626
     19 C          15.4749   74.3652   -8.6745 C.ar    1  UNL1        0.0795
     20 C          15.4421   73.5809   -7.5762 C.ar    1  UNL1        0.0869
     21 O          18.3853   71.8070   -7.9757 O.2     1  UNL1       -0.2464
     22 O          16.6198   74.9506  -10.5655 O.2     1  UNL1       -0.2670
     23 H          18.3008   73.2847   -9.9124 H       1  UNL1        0.1734
     24 O          20.9652   69.7959   -0.8330 O.3     1  UNL1       -0.2703
     25 P          22.0034   70.5768    0.1169 P.3     1  UNL1        0.2208
     26 O          22.6458   69.6157    1.0403 O.2     1  UNL1       -0.5170
     27 O          23.1309   71.2853   -0.7891 O.3     1  UNL1       -0.4371
     28 O          21.2181   71.6957    0.9664 O.3     1  UNL1       -0.2858
     29 C          22.2083   72.5034    1.6042 C.3     1  UNL1        0.2704
     30 C          21.9277   72.5613    3.1066 C.3     1  UNL1        0.1967
     31 C          20.5287   73.1434    3.3304 C.3     1  UNL1        0.1715
     32 C          20.4334   74.4860    2.5969 C.3     1  UNL1        0.1694
     33 C          20.8258   74.2815    1.1315 C.3     1  UNL1        0.1761
     34 O          21.9935   71.2444    3.6569 O.3     1  UNL1       -0.3775
     35 O          20.3089   73.3410    4.7287 O.3     1  UNL1       -0.3794
     36 O          21.3179   75.4273    3.2064 O.3     1  UNL1       -0.3794
     37 O          22.1731   73.8182    1.0541 O.3     1  UNL1       -0.3258
     38 H          22.8867   70.9154    3.4870 H       1  UNL1        0.2106
     39 H          20.3898   72.4758    5.1497 H       1  UNL1        0.2105
     40 H          21.0375   75.5199    4.1263 H       1  UNL1        0.2105
     41 C          20.7010   75.6097    0.3818 C.3     1  UNL1        0.1693
     42 O          19.7001   76.4158    1.0058 O.3     1  UNL1       -0.3794
     43 H          19.6534   77.2417    0.5049 H       1  UNL1        0.2105
@<TRIPOS>BOND
     1    15    16   ar
     2    15    20   ar
     3    15     6    1
     4    16    17   ar
     5    16    21    2
     6    17    18   ar
     7    17    23    1
     8    18    19   ar
     9    18    22    2
    10    19    20   ar
    11     6     7    1
    12     6    11    1
    13     7     8    1
    14     7     9    1
    15     8    13    1
    16     9    10    1
    17     9    12    1
    18    10    11    1
    19    10     5    1
    20    12    14    1
    21     5     4    1
    22     4     1    1
    23     1     2    2
    24     1     3    1
    25     1    24    1
    26    24    25    1
    27    25    26    2
    28    25    27    1
    29    25    28    1
    30    28    29    1
    31    29    30    1
    32    29    37    1
    33    30    31    1
    34    30    34    1
    35    31    32    1
    36    31    35    1
    37    32    33    1
    38    32    36    1
    39    33    41    1
    40    33    37    1
    41    41    42    1
    42    34    38    1
    43    35    39    1
    44    36    40    1
    45    42    43    1
@<TRIPOS>MOLECULE
GDU
 43 45 0 0 0
SMALL
GASTEIGER

@<TRIPOS>ATOM
      1 P          18.9667   70.4158   -3.3516 P.3     1  UNL1        0.2189
      2 O          18.3893   69.5350   -2.3123 O.2     1  UNL1       -0.5170
      3 O          19.8497   69.5358   -4.3708 O.3     1  UNL1       -0.4371
      4 O          17.7807   71.1427   -4.1591 O.3     1  UNL1       -0.3112
      5 C          17.8432   70.6661   -5.5042 C.3     1  UNL1        0.1811
      6 C          18.9139   73.2171   -7.8005 C.3     1  UNL1        0.2383
      7 C          18.5945   71.9946   -8.6984 C.3     1  UNL1        0.1895
      8 O          18.1361   72.4134   -9.9859 O.3     1  UNL1       -0.3779
      9 C          17.4577   71.2979   -7.9063 C.3     1  UNL1        0.1713
     10 C          17.6208   71.8308   -6.4707 C.3     1  UNL1        0.1764
     11 O          18.7673   72.6990   -6.4613 O.3     1  UNL1       -0.3308
     12 O          16.1824   71.6602   -8.4396 O.3     1  UNL1       -0.3794
     13 H          17.9561   71.6095  -10.4930 H       1  UNL1        0.2106
     14 H          16.1643   71.3521   -9.3559 H       1  UNL1        0.2105
     15 N          20.2835   73.6821   -8.0266 N.ar    1  UNL1       -0.2551
     16 C          21.2499   72.7934   -8.3174 C.ar    1  UNL1        0.3323
     17 N          22.5164   73.1951   -8.5331 N.ar    1  UNL1       -0.2743
     18 C          22.8393   74.5001   -8.4509 C.ar    1  UNL1        0.2626
     19 C          21.8328   75.4469   -8.1397 C.ar    1  UNL1        0.0795
     20 C          20.5698   75.0174   -7.9322 C.ar    1  UNL1        0.0869
     21 O          20.9737   71.6129   -8.3954 O.2     1  UNL1       -0.2464
     22 O          23.9863   74.8641   -8.6413 O.2     1  UNL1       -0.2670
     23 H          23.2004   72.5404   -8.7461 H       1  UNL1        0.1734
     24 O          19.9017   71.5258   -2.6543 O.3     1  UNL1       -0.2703
     25 P          21.1279   70.7397   -1.9699 P.3     1  UNL1        0.2208
     26 O          20.6077   69.5866   -1.2027 O.2     1  UNL1       -0.5170
     27 O          22.1327   70.2135   -3.1134 O.3     1  UNL1       -0.4371
     28 O          21.9172   71.7326   -0.9793 O.3     1  UNL1       -0.2858
     29 C          21.0452   72.8316   -0.7119 C.3     1  UNL1        0.2704
     30 C          21.6773   74.1222   -1.2356 C.3     1  UNL1        0.1967
     31 C          23.0319   74.3275   -0.5507 C.3     1  UNL1        0.1715
     32 C          22.8272   74.2708    0.9673 C.3     1  UNL1        0.1694
     33 C          22.1091   72.9670    1.3243 C.3     1  UNL1        0.1761
     34 O          21.8636   74.0247   -2.6488 O.3     1  UNL1       -0.3775
     35 O          23.5676   75.6005   -0.9182 O.3     1  UNL1       -0.3794
     36 O          22.0387   75.3861    1.3851 O.3     1  UNL1       -0.3794
     37 O          20.8296   72.9339    0.6937 O.3     1  UNL1       -0.3258
     38 H          20.9884   73.8891   -3.0369 H       1  UNL1        0.2106
     39 H          23.6681   75.5953   -1.8785 H       1  UNL1        0.2105
     40 H          22.5256   76.1823    1.1354 H       1  UNL1        0.2105
     41 C          21.9302   72.8844    2.8420 C.3     1  UNL1        0.1693
     42 O          20.9169   71.9255    3.1498 O.3     1  UNL1       -0.3794
     43 H          20.8359   71.9034    4.1132 H       1  UNL1        0.2105
@<TRIPOS>BOND
     1    15    16   ar
     2    15    20   ar
     3    15     6    1
     4    16    17   ar
     5    16    21    2
     6    17    18   ar
     7    17    23    1
     8    18    19   ar
     9    18    22    2
    10    19    20   ar
    11     6     7    1
    12     6    11    1
    13     7     8    1
    14     7     9    1
    15     8    13    1
    16     9    10    1
    17     9    12    1
    18    10    11    1
    19    10     5    1
    20    12    14    1
    21     5     4    1
    22     4     1    1
    23     1     2    2
    24     1     3    1
    25     1    24    1
    26    24    25    1
    27    25    26    2
    28    25    27    1
    29    25    28    1
    30    28    29    1
    31    29    30    1
    32    29    37    1
    33    30    31    1
    34    30    34    1
    35    31    32    1
    36    31    35    1
    37    32    33    1
    38    32    36    1
    39    33    41    1
    40    33    37    1
    41    41    42    1
    42    34    38    1
    43    35    39    1
    44    36    40    1
    45    42    43    1
@<TRIPOS>MOLECULE
GDU
 43 45 0 0 0
SMALL
GASTEIGER

@<TRIPOS>ATOM
      1 P          20.5851   72.9730   -3.1663 P.3     1  UNL1        0.2189
      2 O          19.7247   71.8112   -3.4818 O.2     1  UNL1       -0.5170
      3 O          19.7772   74.3346   -3.4599 O.3     1  UNL1       -0.4371
      4 O          21.0070   72.9233   -1.6150 O.3     1  UNL1       -0.3112
      5 C          22.3553   72.4538   -1.5678 C.3     1  UNL1        0.1811
      6 C          22.6564   73.2027    1.9359 C.3     1  UNL1        0.2383
      7 C          21.2875   72.4869    1.8073 C.3     1  UNL1        0.1895
      8 O          20.9788   71.7589    2.9981 O.3     1  UNL1       -0.3779
      9 C          21.5356   71.5226    0.6182 C.3     1  UNL1        0.1713
     10 C          22.7376   72.1404   -0.1201 C.3     1  UNL1        0.1764
     11 O          23.0872   73.3546    0.5667 O.3     1  UNL1       -0.3308
     12 O          21.8517   70.2130    1.0946 O.3     1  UNL1       -0.3794
     13 H          20.1192   71.3394    2.8535 H       1  UNL1        0.2106
     14 H          21.0852   69.9050    1.5969 H       1  UNL1        0.2105
     15 N          22.4991   74.5102    2.5752 N.ar    1  UNL1       -0.2551
     16 C          22.6755   74.6288    3.9030 C.ar    1  UNL1        0.3323
     17 N          22.5403   75.8201    4.5149 N.ar    1  UNL1       -0.2743
     18 C          22.2145   76.9166    3.8038 C.ar    1  UNL1        0.2626
     19 C          22.0200   76.8056    2.4052 C.ar    1  UNL1        0.0795
     20 C          22.1660   75.5997    1.8162 C.ar    1  UNL1        0.0869
     21 O          22.9701   73.6486    4.5576 O.2     1  UNL1       -0.2464
     22 O          22.0872   77.9945    4.3575 O.2     1  UNL1       -0.2670
     23 H          22.6755   75.8882    5.4735 H       1  UNL1        0.1734
     24 O          21.9066   72.9260   -4.0849 O.3     1  UNL1       -0.2703
     25 P          21.4256   73.1399   -5.6057 P.3     1  UNL1        0.2208
     26 O          21.0207   74.5495   -5.8011 O.2     1  UNL1       -0.5170
     27 O          22.6372   72.7866   -6.6063 O.3     1  UNL1       -0.4371
     28 O          20.1763   72.1738   -5.9155 O.3     1  UNL1       -0.2858
     29 C          19.3477   72.8562   -6.8576 C.3     1  UNL1        0.2704
     30 C          17.8965   72.8251   -6.3755 C.3     1  UNL1        0.1967
     31 C          17.4532   71.3669   -6.2219 C.3     1  UNL1        0.1715
     32 C          17.7182   70.6326   -7.5410 C.3     1  UNL1        0.1694
     33 C          19.1846   70.8285   -7.9339 C.3     1  UNL1        0.1761
     34 O          17.7961   73.4927   -5.1164 O.3     1  UNL1       -0.3775
     35 O          16.0583   71.3190   -5.9146 O.3     1  UNL1       -0.3794
     36 O          16.8703   71.1620   -8.5612 O.3     1  UNL1       -0.3794
     37 O          19.4496   72.2170   -8.1279 O.3     1  UNL1       -0.3258
     38 H          18.0910   74.4025   -5.2586 H       1  UNL1        0.2106
     39 H          15.9373   71.8014   -5.0871 H       1  UNL1        0.2105
     40 H          15.9601   71.0223   -8.2692 H       1  UNL1        0.2105
     41 C          19.4684   70.0704   -9.2327 C.3     1  UNL1        0.1693
     42 O          18.9543   70.8136  -10.3391 O.3     1  UNL1       -0.3794
     43 H          19.1539   70.3033  -11.1360 H       1  UNL1        0.2105
@<TRIPOS>BOND
     1    15    16   ar
     2    15    20   ar
     3    15     6    1
     4    16    17   ar
     5    16    21    2
     6    17    18   ar
     7    17    23    1
     8    18    19   ar
     9    18    22    2
    10    19    20   ar
    11     6     7    1
    12     6    11    1
    13     7     8    1
    14     7     9    1
    15     8    13    1
    16     9    10    1
    17     9    12    1
    18    10    11    1
    19    10     5    1
    20    12    14    1
    21     5     4    1
    22     4     1    1
    23     1     2    2
    24     1     3    1
    25     1    24    1
    26    24    25    1
    27    25    26    2
    28    25    27    1
    29    25    28    1
    30    28    29    1
    31    29    30    1
    32    29    37    1
    33    30    31    1
    34    30    34    1
    35    31    32    1
    36    31    35    1
    37    32    33    1
    38    32    36    1
    39    33    41    1
    40    33    37    1
    41    41    42    1
    42    34    38    1
    43    35    39    1
    44    36    40    1
    45    42    43    1
@<TRIPOS>MOLECULE
GDU
 43 45 0 0 0
SMALL
GASTEIGER

@<TRIPOS>ATOM
      1 P          19.4953   69.6579   -3.2323 P.3     1  UNL1        0.2189
      2 O          20.7596   68.9308   -2.9822 O.2     1  UNL1       -0.5170
      3 O          18.2823   68.8923   -2.5007 O.3     1  UNL1       -0.4371
      4 O          19.6126   71.1539   -2.6535 O.3     1  UNL1       -0.3112
      5 C          20.7245   71.1646   -1.7567 C.3     1  UNL1        0.1811
      6 C          21.6629   73.7180    0.5942 C.3     1  UNL1        0.2383
      7 C          22.9956   73.2988   -0.0775 C.3     1  UNL1        0.1895
      8 O          23.9069   74.3986   -0.1325 O.3     1  UNL1       -0.3779
      9 C          22.5293   72.8951   -1.5005 C.3     1  UNL1        0.1713
     10 C          21.0265   72.6031   -1.3331 C.3     1  UNL1        0.1764
     11 O          20.7056   72.7805    0.0575 O.3     1  UNL1       -0.3308
     12 O          22.7376   73.9704   -2.4183 O.3     1  UNL1       -0.3794
     13 H          24.7118   74.0727   -0.5590 H       1  UNL1        0.2106
     14 H          23.6885   74.1445   -2.4345 H       1  UNL1        0.2105
     15 N          21.7527   73.5872    2.0494 N.ar    1  UNL1       -0.2551
     16 C          21.7341   72.3658    2.6116 C.ar    1  UNL1        0.3323
     17 N          21.8188   72.2178    3.9468 N.ar    1  UNL1       -0.2743
     18 C          21.9143   73.2978    4.7460 C.ar    1  UNL1        0.2626
     19 C          21.9293   74.5909    4.1682 C.ar    1  UNL1        0.0795
     20 C          21.8473   74.7107    2.8260 C.ar    1  UNL1        0.0869
     21 O          21.6488   71.3822    1.9036 O.2     1  UNL1       -0.2464
     22 O          21.9862   73.1650    5.9550 O.2     1  UNL1       -0.2670
     23 H          21.8081   71.3286    4.3353 H       1  UNL1        0.1734
     24 O          19.2144   69.7146   -4.8167 O.3     1  UNL1       -0.2703
     25 P          17.8246   70.5011   -5.0163 P.3     1  UNL1        0.2208
     26 O          16.7812   69.5525   -5.4642 O.2     1  UNL1       -0.5170
     27 O          17.3796   71.1670   -3.6189 O.3     1  UNL1       -0.4371
     28 O          18.0134   71.6544   -6.1228 O.3     1  UNL1       -0.2858
     29 C          17.8214   71.0412   -7.3983 C.3     1  UNL1        0.2704
     30 C          19.1081   71.1555   -8.2172 C.3     1  UNL1        0.1967
     31 C          19.4671   72.6360   -8.3775 C.3     1  UNL1        0.1715
     32 C          18.2560   73.3738   -8.9592 C.3     1  UNL1        0.1694
     33 C          17.0334   73.0925   -8.0821 C.3     1  UNL1        0.1761
     34 O          20.1673   70.4750   -7.5419 O.3     1  UNL1       -0.3775
     35 O          20.5822   72.7666   -9.2619 O.3     1  UNL1       -0.3794
     36 O          18.0112   72.9157  -10.2896 O.3     1  UNL1       -0.3794
     37 O          16.7533   71.6934   -8.0812 O.3     1  UNL1       -0.3258
     38 H          19.8957   69.5509   -7.4568 H       1  UNL1        0.2106
     39 H          21.3141   72.2792   -8.8632 H       1  UNL1        0.2105
     40 H          18.8070   73.1076  -10.8026 H       1  UNL1        0.2105
     41 C          15.8256   73.8525   -8.6349 C.3     1  UNL1        0.1693
     42 O          15.9579   73.9905  -10.0507 O.3     1  UNL1       -0.3794
     43 H          15.1784   74.4728  -10.3590 H       1  UNL1        0.2105
@<TRIPOS>BOND
     1    15    16   ar
     2    15    20   ar
     3    15     6    1
     4    16    17   ar
     5    16    21    2
     6    17    18   ar
     7    17    23    1
     8    18    19   ar
     9    18    22    2
    10    19    20   ar
    11     6     7    1
    12     6    11    1
    13     7     8    1
    14     7     9    1
    15     8    13    1
    16     9    10    1
    17     9    12    1
    18    10    11    1
    19    10     5    1
    20    12    14    1
    21     5     4    1
    22     4     1    1
    23     1     2    2
    24     1     3    1
    25     1    24    1
    26    24    25    1
    27    25    26    2
    28    25    27    1
    29    25    28    1
    30    28    29    1
    31    29    30    1
    32    29    37    1
    33    30    31    1
    34    30    34    1
    35    31    32    1
    36    31    35    1
    37    32    33    1
    38    32    36    1
    39    33    41    1
    40    33    37    1
    41    41    42    1
    42    34    38    1
    43    35    39    1
    44    36    40    1
    45    42    43    1
@<TRIPOS>MOLECULE
GDU
 43 45 0 0 0
SMALL
GASTEIGER

@<TRIPOS>ATOM
      1 P          22.3003   73.2521   -5.1532 P.3     1  UNL1        0.2189
      2 O          22.1272   74.7174   -5.2645 O.2     1  UNL1       -0.5170
      3 O          23.6806   72.9314   -4.3883 O.3     1  UNL1       -0.4371
      4 O          21.0707   72.6273   -4.3258 O.3     1  UNL1       -0.3112
      5 C          21.0887   73.2372   -3.0342 C.3     1  UNL1        0.1811
      6 C          22.0813   71.9972    0.1914 C.3     1  UNL1        0.2383
      7 C          21.0751   70.9434   -0.3378 C.3     1  UNL1        0.1895
      8 O          21.3914   69.6413    0.1600 O.3     1  UNL1       -0.3779
      9 C          21.3008   71.0195   -1.8702 C.3     1  UNL1        0.1713
     10 C          21.9482   72.4002   -2.0850 C.3     1  UNL1        0.1764
     11 O          22.0264   73.0436   -0.8013 O.3     1  UNL1       -0.3308
     12 O          22.1782   69.9761   -2.2984 O.3     1  UNL1       -0.3794
     13 H          20.7310   69.0355   -0.2043 H       1  UNL1        0.2106
     14 H          21.7439   69.1393   -2.0839 H       1  UNL1        0.2105
     15 N          21.6609   72.5039    1.4988 N.ar    1  UNL1       -0.2551
     16 C          22.1063   71.9087    2.6194 C.ar    1  UNL1        0.3323
     17 N          21.7378   72.3571    3.8339 N.ar    1  UNL1       -0.2743
     18 C          20.9043   73.4092    3.9462 C.ar    1  UNL1        0.2626
     19 C          20.4226   74.0425    2.7744 C.ar    1  UNL1        0.0795
     20 C          20.8114   73.5752    1.5690 C.ar    1  UNL1        0.0869
     21 O          22.8591   70.9589    2.5340 O.2     1  UNL1       -0.2464
     22 O          20.5664   73.8128    5.0450 O.2     1  UNL1       -0.2670
     23 H          22.0723   71.9181    4.6321 H       1  UNL1        0.1734
     24 O          22.3418   72.6041   -6.6265 O.3     1  UNL1       -0.2703
     25 P          21.1810   73.3176   -7.4829 P.3     1  UNL1        0.2208
     26 O          21.3149   74.7865   -7.3673 O.2     1  UNL1       -0.5170
     27 O          21.3137   72.8873   -9.0293 O.3     1  UNL1       -0.4371
     28 O          19.7425   72.8631   -6.9223 O.3     1  UNL1       -0.2858
     29 C          19.4491   71.5956   -7.5116 C.3     1  UNL1        0.2704
     30 C          18.2077   71.7206   -8.3963 C.3     1  UNL1        0.1967
     31 C          17.0326   72.2045   -7.5411 C.3     1  UNL1        0.1715
     32 C          16.8840   71.2672   -6.3372 C.3     1  UNL1        0.1694
     33 C          18.2264   71.1782   -5.6070 C.3     1  UNL1        0.1761
     34 O          18.4586   72.6600   -9.4431 O.3     1  UNL1       -0.3775
     35 O          15.8334   72.1856   -8.3182 O.3     1  UNL1       -0.3794
     36 O          16.4925   69.9695   -6.7875 O.3     1  UNL1       -0.3794
     37 O          19.2153   70.6375   -6.4820 O.3     1  UNL1       -0.3258
     38 H          19.2083   72.3193   -9.9498 H       1  UNL1        0.2106
     39 H          15.9763   72.7772   -9.0678 H       1  UNL1        0.2105
     40 H          15.6481   70.0749   -7.2448 H       1  UNL1        0.2105
     41 C          18.0800   70.2714   -4.3830 C.3     1  UNL1        0.1693
     42 O          16.6950   70.1170   -4.0685 O.3     1  UNL1       -0.3794
     43 H          16.6465   69.5398   -3.2941 H       1  UNL1        0.2105
@<TRIPOS>BOND
     1    15    16   ar
     2    15    20   ar
     3    15     6    1
     4    16    17   ar
     5    16    21    2
     6    17    18   ar
     7    17    23    1
     8    18    19   ar
     9    18    22    2
    10    19    20   ar
    11     6     7    1
    12     6    11    1
    13     7     8    1
    14     7     9    1
    15     8    13    1
    16     9    10    1
    17     9    12    1
    18    10    11    1
    19    10     5    1
    20    12    14    1
    21     5     4    1
    22     4     1    1
    23     1     2    2
    24     1     3    1
    25     1    24    1
    26    24    25    1
    27    25    26    2
    28    25    27    1
    29    25    28    1
    30    28    29    1
    31    29    30    1
    32    29    37    1
    33    30    31    1
    34    30    34    1
    35    31    32    1
    36    31    35    1
    37    32    33    1
    38    32    36    1
    39    33    41    1
    40    33    37    1
    41    41    42    1
    42    34    38    1
    43    35    39    1
    44    36    40    1
    45    42    43    1
@<TRIPOS>MOLECULE
GDU
 43 45 0 0 0
SMALL
GASTEIGER

@<TRIPOS>ATOM
      1 P          22.2975   72.7228   -4.6955 P.3     1  UNL1        0.2189
      2 O          23.5733   72.5867   -3.9584 O.2     1  UNL1       -0.5170
      3 O          21.6505   74.1646   -4.3865 O.3     1  UNL1       -0.4371
      4 O          22.5719   72.5849   -6.2742 O.3     1  UNL1       -0.3112
      5 C          21.4817   73.2232   -6.9410 C.3     1  UNL1        0.1811
      6 C          18.2167   72.1950   -8.0410 C.3     1  UNL1        0.2383
      7 C          19.1119   72.0592   -9.2993 C.3     1  UNL1        0.1895
      8 O          18.6463   71.0050  -10.1449 O.3     1  UNL1       -0.3779
      9 C          20.4895   71.7050   -8.6812 C.3     1  UNL1        0.1713
     10 C          20.3841   72.1963   -7.2255 C.3     1  UNL1        0.1764
     11 O          19.0915   72.8072   -7.0697 O.3     1  UNL1       -0.3308
     12 O          20.7088   70.2936   -8.7253 O.3     1  UNL1       -0.3794
     13 H          19.2431   70.9736  -10.9056 H       1  UNL1        0.2106
     14 H          20.7055   70.0387   -9.6579 H       1  UNL1        0.2105
     15 N          17.0660   73.0574   -8.3146 N.ar    1  UNL1       -0.2551
     16 C          17.0347   73.7900   -9.4419 C.ar    1  UNL1        0.3323
     17 N          15.9869   74.5882   -9.7190 N.ar    1  UNL1       -0.2743
     18 C          14.9517   74.6736   -8.8615 C.ar    1  UNL1        0.2626
     19 C          14.9735   73.9121   -7.6675 C.ar    1  UNL1        0.0795
     20 C          16.0347   73.1164   -7.4162 C.ar    1  UNL1        0.0869
     21 O          17.9610   73.7230  -10.2251 O.2     1  UNL1       -0.2464
     22 O          14.0050   75.3995   -9.1092 O.2     1  UNL1       -0.2670
     23 H          15.9791   75.1066  -10.5393 H       1  UNL1        0.1734
     24 O          21.2802   71.5674   -4.2234 O.3     1  UNL1       -0.2703
     25 P          21.9330   70.8721   -2.9271 P.3     1  UNL1        0.2208
     26 O          21.3259   69.5381   -2.7249 O.2     1  UNL1       -0.5170
     27 O          23.5204   70.7109   -3.1470 O.3     1  UNL1       -0.4371
     28 O          21.6622   71.7880   -1.6318 O.3     1  UNL1       -0.2858
     29 C          22.7799   71.6145   -0.7599 C.3     1  UNL1        0.2704
     30 C          22.2931   71.1000    0.5957 C.3     1  UNL1        0.1967
     31 C          21.2997   72.1069    1.1837 C.3     1  UNL1        0.1715
     32 C          21.9610   73.4895    1.2100 C.3     1  UNL1        0.1694
     33 C          22.4716   73.8238   -0.1938 C.3     1  UNL1        0.1761
     34 O          21.6506   69.8354    0.4251 O.3     1  UNL1       -0.3775
     35 O          20.9483   71.7148    2.5123 O.3     1  UNL1       -0.3794
     36 O          23.0527   73.4796    2.1309 O.3     1  UNL1       -0.3794
     37 O          23.4481   72.8627   -0.5924 O.3     1  UNL1       -0.3258
     38 H          22.3091   69.2366    0.0472 H       1  UNL1        0.2106
     39 H          20.5484   70.8382    2.4489 H       1  UNL1        0.2105
     40 H          22.6860   73.2596    2.9972 H       1  UNL1        0.2105
     41 C          23.1036   75.2175   -0.1863 C.3     1  UNL1        0.1693
     42 O          24.4867   75.1107    0.1551 O.3     1  UNL1       -0.3794
     43 H          24.8469   76.0081    0.1480 H       1  UNL1        0.2105
@<TRIPOS>BOND
     1    15    16   ar
     2    15    20   ar
     3    15     6    1
     4    16    17   ar
     5    16    21    2
     6    17    18   ar
     7    17    23    1
     8    18    19   ar
     9    18    22    2
    10    19    20   ar
    11     6     7    1
    12     6    11    1
    13     7     8    1
    14     7     9    1
    15     8    13    1
    16     9    10    1
    17     9    12    1
    18    10    11    1
    19    10     5    1
    20    12    14    1
    21     5     4    1
    22     4     1    1
    23     1     2    2
    24     1     3    1
    25     1    24    1
    26    24    25    1
    27    25    26    2
    28    25    27    1
    29    25    28    1
    30    28    29    1
    31    29    30    1
    32    29    37    1
    33    30    31    1
    34    30    34    1
    35    31    32    1
    36    31    35    1
    37    32    33    1
    38    32    36    1
    39    33    41    1
    40    33    37    1
    41    41    42    1
    42    34    38    1
    43    35    39    1
    44    36    40    1
    45    42    43    1
@<TRIPOS>MOLECULE
GDU
 43 45 0 0 0
SMALL
GASTEIGER

@<TRIPOS>ATOM
      1 P          18.7860   71.8513   -6.9831 P.3     1  UNL1        0.2189
      2 O          20.2111   71.7498   -7.3684 O.2     1  UNL1       -0.5170
      3 O          18.5731   73.1468   -6.0508 O.3     1  UNL1       -0.4371
      4 O          17.8805   71.9871   -8.3054 O.3     1  UNL1       -0.3112
      5 C          16.8678   72.9521   -8.0161 C.3     1  UNL1        0.1811
      6 C          15.4621   75.5345  -10.0855 C.3     1  UNL1        0.2383
      7 C          15.8647   76.2608   -8.7766 C.3     1  UNL1        0.1895
      8 O          16.2288   77.6182   -9.0378 O.3     1  UNL1       -0.3779
      9 C          17.0948   75.4376   -8.3134 C.3     1  UNL1        0.1713
     10 C          16.9365   74.0882   -9.0382 C.3     1  UNL1        0.1764
     11 O          15.7115   74.1439   -9.7896 O.3     1  UNL1       -0.3308
     12 O          18.3062   76.0853   -8.7067 O.3     1  UNL1       -0.3794
     13 H          16.4669   78.0118   -8.1868 H       1  UNL1        0.2106
     14 H          18.3186   76.9466   -8.2677 H       1  UNL1        0.2105
     15 N          14.0457   75.7523  -10.3841 N.ar    1  UNL1       -0.2551
     16 C          13.1072   75.0915   -9.6836 C.ar    1  UNL1        0.3323
     17 N          11.7980   75.2763   -9.9358 N.ar    1  UNL1       -0.2743
     18 C          11.4055   76.1238  -10.9064 C.ar    1  UNL1        0.2626
     19 C          12.3831   76.8224  -11.6563 C.ar    1  UNL1        0.0795
     20 C          13.6892   76.6216  -11.3798 C.ar    1  UNL1        0.0869
     21 O          13.4459   74.3241   -8.8047 O.2     1  UNL1       -0.2464
     22 O          10.2208   76.2882  -11.1387 O.2     1  UNL1       -0.2670
     23 H          11.1341   74.7943   -9.4175 H       1  UNL1        0.1734
     24 O          18.3556   70.5300   -6.1698 O.3     1  UNL1       -0.2703
     25 P          17.7262   71.0256   -4.7740 P.3     1  UNL1        0.2208
     26 O          16.8803   72.2164   -5.0097 O.2     1  UNL1       -0.5170
     27 O          16.8287   69.8470   -4.1418 O.3     1  UNL1       -0.4371
     28 O          18.9119   71.4019   -3.7530 O.3     1  UNL1       -0.2858
     29 C          19.9568   70.4509   -3.9617 C.3     1  UNL1        0.2704
     30 C          20.2084   69.6783   -2.6658 C.3     1  UNL1        0.1967
     31 C          20.5909   70.6684   -1.5614 C.3     1  UNL1        0.1715
     32 C          21.7674   71.5196   -2.0522 C.3     1  UNL1        0.1694
     33 C          21.3964   72.1545   -3.3947 C.3     1  UNL1        0.1761
     34 O          19.0230   68.9746   -2.2903 O.3     1  UNL1       -0.3775
     35 O          20.9715   69.9517   -0.3849 O.3     1  UNL1       -0.3794
     36 O          22.9213   70.6931   -2.2117 O.3     1  UNL1       -0.3794
     37 O          21.1449   71.1320   -4.3576 O.3     1  UNL1       -0.3258
     38 H          18.8161   68.3697   -3.0157 H       1  UNL1        0.2106
     39 H          20.2082   69.4232   -0.1199 H       1  UNL1        0.2105
     40 H          23.1138   70.3111   -1.3455 H       1  UNL1        0.2105
     41 C          22.5517   73.0344   -3.8774 C.3     1  UNL1        0.1693
     42 O          22.9209   72.6496   -5.2027 O.3     1  UNL1       -0.3794
     43 H          23.6495   73.2271   -5.4692 H       1  UNL1        0.2105
@<TRIPOS>BOND
     1    15    16   ar
     2    15    20   ar
     3    15     6    1
     4    16    17   ar
     5    16    21    2
     6    17    18   ar
     7    17    23    1
     8    18    19   ar
     9    18    22    2
    10    19    20   ar
    11     6     7    1
    12     6    11    1
    13     7     8    1
    14     7     9    1
    15     8    13    1
    16     9    10    1
    17     9    12    1
    18    10    11    1
    19    10     5    1
    20    12    14    1
    21     5     4    1
    22     4     1    1
    23     1     2    2
    24     1     3    1
    25     1    24    1
    26    24    25    1
    27    25    26    2
    28    25    27    1
    29    25    28    1
    30    28    29    1
    31    29    30    1
    32    29    37    1
    33    30    31    1
    34    30    34    1
    35    31    32    1
    36    31    35    1
    37    32    33    1
    38    32    36    1
    39    33    41    1
    40    33    37    1
    41    41    42    1
    42    34    38    1
    43    35    39    1
    44    36    40    1
    45    42    43    1
@<TRIPOS>MOLECULE
GDU
 43 45 0 0 0
SMALL
GASTEIGER

@<TRIPOS>ATOM
      1 P          19.2726   69.9405   -3.3324 P.3     1  UNL1        0.2189
      2 O          19.0718   71.2460   -2.6655 O.2     1  UNL1       -0.5170
      3 O          18.3233   68.8357   -2.6459 O.3     1  UNL1       -0.4371
      4 O          18.9024   70.0716   -4.8920 O.3     1  UNL1       -0.3112
      5 C          17.5325   70.4706   -4.9600 C.3     1  UNL1        0.1811
      6 C          18.6687   72.6947   -7.5465 C.3     1  UNL1        0.2383
      7 C          18.5495   71.3155   -8.2440 C.3     1  UNL1        0.1895
      8 O          18.2144   71.4697   -9.6250 O.3     1  UNL1       -0.3779
      9 C          17.3837   70.6558   -7.4623 C.3     1  UNL1        0.1713
     10 C          17.3373   71.4326   -6.1334 C.3     1  UNL1        0.1764
     11 O          18.4061   72.3945   -6.1593 O.3     1  UNL1       -0.3308
     12 O          16.1558   70.8027   -8.1784 O.3     1  UNL1       -0.3794
     13 H          18.1560   70.5794   -9.9989 H       1  UNL1        0.2106
     14 H          16.2681   70.3465   -9.0234 H       1  UNL1        0.2105
     15 N          20.0163   73.2428   -7.7095 N.ar    1  UNL1       -0.2551
     16 C          20.1767   74.4805   -8.2102 C.ar    1  UNL1        0.3323
     17 N          21.4047   75.0092   -8.3668 N.ar    1  UNL1       -0.2743
     18 C          22.4988   74.2986   -8.0317 C.ar    1  UNL1        0.2626
     19 C          22.3452   72.9914   -7.5085 C.ar    1  UNL1        0.0795
     20 C          21.1021   72.4870   -7.3577 C.ar    1  UNL1        0.0869
     21 O          19.1992   75.1336   -8.5165 O.2     1  UNL1       -0.2464
     22 O          23.6108   74.7746   -8.1776 O.2     1  UNL1       -0.2670
     23 H          21.5017   75.9056   -8.7257 H       1  UNL1        0.1734
     24 O          20.8116   69.4924   -3.1806 O.3     1  UNL1       -0.2703
     25 P          21.6675   70.8350   -2.9457 P.3     1  UNL1        0.2208
     26 O          23.1104   70.5240   -3.0476 O.2     1  UNL1       -0.5170
     27 O          21.2736   71.9248   -4.0644 O.3     1  UNL1       -0.4371
     28 O          21.3472   71.4281   -1.4843 O.3     1  UNL1       -0.2858
     29 C          22.5723   71.4076   -0.7505 C.3     1  UNL1        0.2704
     30 C          22.2942   70.9853    0.6930 C.3     1  UNL1        0.1967
     31 C          21.3049   71.9729    1.3195 C.3     1  UNL1        0.1715
     32 C          21.8564   73.3930    1.1500 C.3     1  UNL1        0.1694
     33 C          22.1661   73.6334   -0.3296 C.3     1  UNL1        0.1761
     34 O          21.7347   69.6708    0.7079 O.3     1  UNL1       -0.3775
     35 O          21.1481   71.6788    2.7093 O.3     1  UNL1       -0.3794
     36 O          23.0491   73.5378    1.9224 O.3     1  UNL1       -0.3794
     37 O          23.1580   72.7072   -0.7705 O.3     1  UNL1       -0.3258
     38 H          22.3866   69.0855    0.2987 H       1  UNL1        0.2106
     39 H          20.8120   70.7756    2.7681 H       1  UNL1        0.2105
     40 H          22.8080   73.3724    2.8432 H       1  UNL1        0.2105
     41 C          22.6854   75.0610   -0.5148 C.3     1  UNL1        0.1693
     42 O          24.1139   75.0531   -0.4987 O.3     1  UNL1       -0.3794
     43 H          24.4002   75.9690   -0.6188 H       1  UNL1        0.2105
@<TRIPOS>BOND
     1    15    16   ar
     2    15    20   ar
     3    15     6    1
     4    16    17   ar
     5    16    21    2
     6    17    18   ar
     7    17    23    1
     8    18    19   ar
     9    18    22    2
    10    19    20   ar
    11     6     7    1
    12     6    11    1
    13     7     8    1
    14     7     9    1
    15     8    13    1
    16     9    10    1
    17     9    12    1
    18    10    11    1
    19    10     5    1
    20    12    14    1
    21     5     4    1
    22     4     1    1
    23     1     2    2
    24     1     3    1
    25     1    24    1
    26    24    25    1
    27    25    26    2
    28    25    27    1
    29    25    28    1
    30    28    29    1
    31    29    30    1
    32    29    37    1
    33    30    31    1
    34    30    34    1
    35    31    32    1
    36    31    35    1
    37    32    33    1
    38    32    36    1
    39    33    41    1
    40    33    37    1
    41    41    42    1
    42    34    38    1
    43    35    39    1
    44    36    40    1
    45    42    43    1
