@<TRIPOS>MOLECULE
UDP-glaA
 43 45 0 0 0
SMALL
GASTEIGER

@<TRIPOS>ATOM
      1 P          21.5832   71.6068   -2.4685 P.3     1  UNL1        0.2189
      2 O          20.9750   72.9172   -3.1966 O.3     1  UNL1       -0.4371
      3 O          22.7775   71.0026   -3.1471 O.2     1  UNL1       -0.5170
      4 O          20.3059   70.6305   -2.2928 O.3     1  UNL1       -0.3112
      5 C          19.6578   70.1468   -3.4570 C.3     1  UNL1        0.1811
      6 O          17.9850   71.3724   -4.6709 O.3     1  UNL1       -0.3308
      7 O          15.9739   69.9817   -2.9351 O.3     1  UNL1       -0.3794
      8 O          15.8402   68.5597   -5.2579 O.3     1  UNL1       -0.3779
      9 C          17.2015   69.4867   -3.4696 C.3     1  UNL1        0.1713
     10 C          17.0557   69.2107   -4.9512 C.3     1  UNL1        0.1895
     11 C          18.2129   70.6254   -3.4556 C.3     1  UNL1        0.1764
     12 C          17.1350   70.6081   -5.5420 C.3     1  UNL1        0.2383
     13 H          16.1263   70.1806   -1.9955 H       1  UNL1        0.2105
     14 H          15.8201   67.7261   -4.7570 H       1  UNL1        0.2106
     15 O          15.6325   70.2913   -7.9122 O.2     1  UNL1       -0.2464
     16 O          19.3894   70.6440  -10.5579 O.2     1  UNL1       -0.2670
     17 N          17.6945   70.6137   -6.8635 N.ar    1  UNL1       -0.2551
     18 N          17.5043   70.4666   -9.2280 N.ar    1  UNL1       -0.2743
     19 C          16.8528   70.4456   -7.9878 C.ar    1  UNL1        0.3323
     20 C          19.0637   70.7841   -7.0358 C.ar    1  UNL1        0.0869
     21 C          19.6697   70.8022   -8.2250 C.ar    1  UNL1        0.0795
     22 C          18.8627   70.6327   -9.4496 C.ar    1  UNL1        0.2626
     23 H          16.9191   70.3470  -10.0504 H       1  UNL1        0.1734
     24 O          21.8553   72.1236   -0.9605 O.3     1  UNL1       -0.2703
     25 P          22.3785   71.3378    0.3515 P.3     1  UNL1        0.2208
     26 O          23.8621   70.8534   -0.0733 O.3     1  UNL1       -0.4371
     27 O          21.4722   70.2310    0.8089 O.2     1  UNL1       -0.5170
     28 O          22.6252   72.4942    1.4496 O.3     1  UNL1       -0.2858
     29 O          24.1756   72.6391    3.2313 O.3     1  UNL1       -0.3226
     30 O          20.8674   74.6130    4.7928 O.3     1  UNL1       -0.3794
     31 O          20.5351   72.1762    3.2252 O.3     1  UNL1       -0.3775
     32 O          23.4980   74.2128    5.5341 O.3     1  UNL1       -0.3792
     33 C          21.8018   74.1647    3.8150 C.3     1  UNL1        0.1718
     34 C          21.7873   72.6351    3.7236 C.3     1  UNL1        0.1968
     35 C          23.1995   74.6530    4.2052 C.3     1  UNL1        0.1723
     36 C          22.9065   72.1354    2.8017 C.3     1  UNL1        0.2706
     37 C          24.2343   74.0645    3.2486 C.3     1  UNL1        0.1830
     38 H          20.9124   75.5841    4.8181 H       1  UNL1        0.2105
     39 H          20.5766   71.2063    3.1761 H       1  UNL1        0.2106
     40 H          23.6823   73.2586    5.5093 H       1  UNL1        0.2106
     41 O          25.6526   75.6073    4.3032 O.co2   1  UNL1       -0.5466
     42 O          26.6123   73.7127    3.4747 O.co2   1  UNL1       -0.5466
     43 C          25.6274   74.4101    3.6693 C.2     1  UNL1        0.0799
@<TRIPOS>UNITY_ATOM_ATTR
41 1
charge -1
@<TRIPOS>BOND
     1     1     4    1
     2     1    24    1
     3     1     2    1
     4     1     3    2
     5    25    28    1
     6    25    24    1
     7    25    26    1
     8    25    27    2
     9     6    11    1
    10     6    12    1
    11    29    36    1
    12    29    37    1
    13     7     9    1
    14     7    13    1
    15     8    10    1
    16     8    14    1
    17     4     5    1
    18    28    36    1
    19    30    33    1
    20    30    38    1
    21    31    34    1
    22    31    39    1
    23    32    35    1
    24    32    40    1
    25    41    43   ar
    26    15    19    2
    27    42    43   ar
    28    16    22    2
    29    17    12    1
    30    17    19   ar
    31    17    20   ar
    32    18    19   ar
    33    18    22   ar
    34    18    23    1
    35     9    10    1
    36     9    11    1
    37    10    12    1
    38    11     5    1
    39    33    34    1
    40    33    35    1
    41    34    36    1
    42    35    37    1
    43    37    43    1
    44    20    21   ar
    45    21    22   ar
@<TRIPOS>MOLECULE
UDP-glaA
 43 45 0 0 0
SMALL
GASTEIGER

@<TRIPOS>ATOM
      1 P          21.2091   72.8267   -4.8739 P.3     1  UNL1        0.2189
      2 O          20.3795   74.0357   -5.5577 O.3     1  UNL1       -0.4371
      3 O          21.6673   71.7577   -5.8223 O.2     1  UNL1       -0.5170
      4 O          20.2535   72.3325   -3.6663 O.3     1  UNL1       -0.3112
      5 C          19.6604   71.0481   -3.7540 C.3     1  UNL1        0.1811
      6 O          17.7779   71.6834   -5.1056 O.3     1  UNL1       -0.3308
      7 O          16.0914   70.1867   -3.1291 O.3     1  UNL1       -0.3794
      8 O          16.2907   68.4222   -5.1986 O.3     1  UNL1       -0.3779
      9 C          17.4023   69.8867   -3.6079 C.3     1  UNL1        0.1713
     10 C          17.3355   69.3570   -5.0248 C.3     1  UNL1        0.1895
     11 C          18.1467   71.2023   -3.7943 C.3     1  UNL1        0.1764
     12 C          17.1208   70.6288   -5.8276 C.3     1  UNL1        0.2383
     13 H          16.1872   70.5584   -2.2357 H       1  UNL1        0.2105
     14 H          16.4438   67.6927   -4.5737 H       1  UNL1        0.2106
     15 O          15.6136   70.7574   -8.2123 O.2     1  UNL1       -0.2464
     16 O          19.3774   70.2973  -10.8316 O.2     1  UNL1       -0.2670
     17 N          17.6810   70.5458   -7.1462 N.ar    1  UNL1       -0.2551
     18 N          17.4888   70.5276   -9.5150 N.ar    1  UNL1       -0.2743
     19 C          16.8365   70.6202   -8.2785 C.ar    1  UNL1        0.3323
     20 C          19.0534   70.3922   -7.3078 C.ar    1  UNL1        0.0869
     21 C          19.6602   70.3060   -8.4936 C.ar    1  UNL1        0.0795
     22 C          18.8503   70.3740   -9.7261 C.ar    1  UNL1        0.2626
     23 H          16.9014   70.5781  -10.3430 H       1  UNL1        0.1734
     24 O          22.4020   73.5976   -4.1008 O.3     1  UNL1       -0.2703
     25 P          23.7257   73.0343   -3.3639 P.3     1  UNL1        0.2208
     26 O          24.9186   73.8981   -4.0325 O.3     1  UNL1       -0.4371
     27 O          23.9033   71.5466   -3.4690 O.2     1  UNL1       -0.5170
     28 O          23.6188   73.5877   -1.8518 O.3     1  UNL1       -0.2858
     29 O          22.3961   72.1424   -0.4322 O.3     1  UNL1       -0.3226
     30 O          22.9692   75.4678    1.9953 O.3     1  UNL1       -0.3794
     31 O          22.3064   75.7898   -0.8266 O.3     1  UNL1       -0.3775
     32 O          21.9961   72.9015    2.3069 O.3     1  UNL1       -0.3792
     33 C          23.2554   74.4927    0.9965 C.3     1  UNL1        0.1718
     34 C          22.2129   74.5546   -0.1250 C.3     1  UNL1        0.1968
     35 C          23.2477   73.1047    1.6428 C.3     1  UNL1        0.1723
     36 C          22.4111   73.4002   -1.1152 C.3     1  UNL1        0.2706
     37 C          23.4112   72.0356    0.5647 C.3     1  UNL1        0.1830
     38 H          23.6511   75.3909    2.6842 H       1  UNL1        0.2105
     39 H          21.6360   75.7790   -1.5303 H       1  UNL1        0.2106
     40 H          21.3108   72.7492    1.6344 H       1  UNL1        0.2106
     41 O          21.9838   70.2641    1.1375 O.co2   1  UNL1       -0.5466
     42 O          24.2090   69.9765    1.5410 O.co2   1  UNL1       -0.5466
     43 C          23.2798   70.6591    1.1346 C.2     1  UNL1        0.0799
@<TRIPOS>UNITY_ATOM_ATTR
41 1
charge -1
@<TRIPOS>BOND
     1     1     4    1
     2     1    24    1
     3     1     2    1
     4     1     3    2
     5    25    28    1
     6    25    24    1
     7    25    26    1
     8    25    27    2
     9     6    11    1
    10     6    12    1
    11    29    36    1
    12    29    37    1
    13     7     9    1
    14     7    13    1
    15     8    10    1
    16     8    14    1
    17     4     5    1
    18    28    36    1
    19    30    33    1
    20    30    38    1
    21    31    34    1
    22    31    39    1
    23    32    35    1
    24    32    40    1
    25    41    43   ar
    26    15    19    2
    27    42    43   ar
    28    16    22    2
    29    17    12    1
    30    17    19   ar
    31    17    20   ar
    32    18    19   ar
    33    18    22   ar
    34    18    23    1
    35     9    10    1
    36     9    11    1
    37    10    12    1
    38    11     5    1
    39    33    34    1
    40    33    35    1
    41    34    36    1
    42    35    37    1
    43    37    43    1
    44    20    21   ar
    45    21    22   ar
@<TRIPOS>MOLECULE
UDP-glaA
 43 45 0 0 0
SMALL
GASTEIGER

@<TRIPOS>ATOM
      1 P          22.3073   71.9732   -3.5308 P.3     1  UNL1        0.2189
      2 O          23.3768   72.2220   -4.7189 O.3     1  UNL1       -0.4371
      3 O          22.7814   71.0682   -2.4316 O.2     1  UNL1       -0.5170
      4 O          20.9689   71.4981   -4.3044 O.3     1  UNL1       -0.3112
      5 C          20.1569   70.5030   -3.7046 C.3     1  UNL1        0.1811
      6 O          18.4067   71.6643   -4.8719 O.3     1  UNL1       -0.3308
      7 O          16.5291   70.4685   -2.8630 O.3     1  UNL1       -0.3794
      8 O          16.1731   68.8645   -5.0393 O.3     1  UNL1       -0.3779
      9 C          17.6979   69.9025   -3.4556 C.3     1  UNL1        0.1713
     10 C          17.4211   69.5096   -4.8914 C.3     1  UNL1        0.1895
     11 C          18.7256   71.0142   -3.6218 C.3     1  UNL1        0.1764
     12 C          17.4726   70.8516   -5.6015 C.3     1  UNL1        0.2383
     13 H          16.7647   70.7400   -1.9595 H       1  UNL1        0.2105
     14 H          16.1822   68.0755   -4.4705 H       1  UNL1        0.2106
     15 O          15.7827   70.2696   -7.7880 O.2     1  UNL1       -0.2464
     16 O          19.2883   70.4288  -10.7752 O.2     1  UNL1       -0.2670
     17 N          17.9168   70.7357   -6.9612 N.ar    1  UNL1       -0.2551
     18 N          17.5295   70.3487   -9.2740 N.ar    1  UNL1       -0.2743
     19 C          16.9872   70.4394   -7.9853 C.ar    1  UNL1        0.3323
     20 C          19.2609   70.9148   -7.2689 C.ar    1  UNL1        0.0869
     21 C          19.7624   70.8255   -8.5028 C.ar    1  UNL1        0.0795
     22 C          18.8588   70.5183   -9.6292 C.ar    1  UNL1        0.2626
     23 H          16.8797   70.1359  -10.0261 H       1  UNL1        0.1734
     24 O          21.9383   73.4742   -3.0553 O.3     1  UNL1       -0.2703
     25 P          21.4410   74.0415   -1.6258 P.3     1  UNL1        0.2208
     26 O          20.3595   72.9390   -1.1451 O.3     1  UNL1       -0.4371
     27 O          20.9151   75.4476   -1.6703 O.2     1  UNL1       -0.5170
     28 O          22.7025   73.8323   -0.6416 O.3     1  UNL1       -0.2858
     29 O          22.9846   72.5933    1.3546 O.3     1  UNL1       -0.3226
     30 O          25.3089   75.9615    2.0843 O.3     1  UNL1       -0.3794
     31 O          22.7177   76.2061    0.7683 O.3     1  UNL1       -0.3775
     32 O          24.8650   73.5271    3.3118 O.3     1  UNL1       -0.3792
     33 C          24.6942   74.9129    1.3407 C.3     1  UNL1        0.1718
     34 C          23.1679   75.0240    1.4216 C.3     1  UNL1        0.1968
     35 C          25.1524   73.5675    1.9102 C.3     1  UNL1        0.1723
     36 C          22.4994   73.8067    0.7706 C.3     1  UNL1        0.2706
     37 C          24.3961   72.4340    1.2206 C.3     1  UNL1        0.1830
     38 H          26.2718   75.8503    2.0072 H       1  UNL1        0.2105
     39 H          21.7484   76.2282    0.8370 H       1  UNL1        0.2106
     40 H          23.9066   73.4117    3.4274 H       1  UNL1        0.2106
     41 O          25.6918   70.4801    1.1350 O.co2   1  UNL1       -0.5466
     42 O          24.1808   70.6502    2.8335 O.co2   1  UNL1       -0.5466
     43 C          24.7171   71.1087    1.8352 C.2     1  UNL1        0.0799
@<TRIPOS>UNITY_ATOM_ATTR
41 1
charge -1
@<TRIPOS>BOND
     1     1     4    1
     2     1    24    1
     3     1     2    1
     4     1     3    2
     5    25    28    1
     6    25    24    1
     7    25    26    1
     8    25    27    2
     9     6    11    1
    10     6    12    1
    11    29    36    1
    12    29    37    1
    13     7     9    1
    14     7    13    1
    15     8    10    1
    16     8    14    1
    17     4     5    1
    18    28    36    1
    19    30    33    1
    20    30    38    1
    21    31    34    1
    22    31    39    1
    23    32    35    1
    24    32    40    1
    25    41    43   ar
    26    15    19    2
    27    42    43   ar
    28    16    22    2
    29    17    12    1
    30    17    19   ar
    31    17    20   ar
    32    18    19   ar
    33    18    22   ar
    34    18    23    1
    35     9    10    1
    36     9    11    1
    37    10    12    1
    38    11     5    1
    39    33    34    1
    40    33    35    1
    41    34    36    1
    42    35    37    1
    43    37    43    1
    44    20    21   ar
    45    21    22   ar
@<TRIPOS>MOLECULE
UDP-glaA
 43 45 0 0 0
SMALL
GASTEIGER

@<TRIPOS>ATOM
      1 P          23.1596   72.9804   -3.3133 P.3     1  UNL1        0.2189
      2 O          23.7726   74.0909   -2.3091 O.3     1  UNL1       -0.4371
      3 O          24.1615   72.0178   -3.8804 O.2     1  UNL1       -0.5170
      4 O          22.3294   73.8496   -4.3955 O.3     1  UNL1       -0.3112
      5 C          21.0794   73.3557   -4.8457 C.3     1  UNL1        0.1811
      6 O          20.7425   71.0764   -5.5282 O.3     1  UNL1       -0.3308
      7 O          21.3199   72.0219   -8.3146 O.3     1  UNL1       -0.3794
      8 O          18.5986   71.8480   -8.2967 O.3     1  UNL1       -0.3779
      9 C          20.6295   72.6902   -7.2590 C.3     1  UNL1        0.1713
     10 C          19.2531   72.0888   -7.0682 C.3     1  UNL1        0.1895
     11 C          21.3177   72.3335   -5.9480 C.3     1  UNL1        0.1764
     12 C          19.5697   70.8084   -6.3144 C.3     1  UNL1        0.2383
     13 H          22.2079   72.4137   -8.3738 H       1  UNL1        0.2105
     14 H          18.5322   72.6982   -8.7645 H       1  UNL1        0.2106
     15 O          17.1648   69.6068   -7.1794 O.2     1  UNL1       -0.2464
     16 O          15.5471   69.3170   -2.8739 O.2     1  UNL1       -0.2670
     17 N          18.5035   70.4083   -5.4413 N.ar    1  UNL1       -0.2551
     18 N          16.3606   69.4638   -5.0349 N.ar    1  UNL1       -0.2743
     19 C          17.3369   69.8142   -5.9769 C.ar    1  UNL1        0.3323
     20 C          18.6195   70.6059   -4.0698 C.ar    1  UNL1        0.0869
     21 C          17.6800   70.2659   -3.1846 C.ar    1  UNL1        0.0795
     22 C          16.4305   69.6407   -3.6617 C.ar    1  UNL1        0.2626
     23 H          15.5130   69.0356   -5.3974 H       1  UNL1        0.1734
     24 O          21.9936   72.2947   -2.4270 O.3     1  UNL1       -0.2703
     25 P          22.0409   71.5981   -0.9693 P.3     1  UNL1        0.2208
     26 O          23.4921   70.8843   -0.9460 O.3     1  UNL1       -0.4371
     27 O          20.8906   70.6734   -0.6909 O.2     1  UNL1       -0.5170
     28 O          22.1738   72.8276    0.0674 O.3     1  UNL1       -0.2858
     29 O          23.1137   71.7954    1.9780 O.3     1  UNL1       -0.3226
     30 O          23.2331   75.8192    3.0144 O.3     1  UNL1       -0.3794
     31 O          20.9105   74.7110    1.6420 O.3     1  UNL1       -0.3775
     32 O          24.2063   73.4515    4.0521 O.3     1  UNL1       -0.3792
     33 C          23.2801   74.6650    2.1801 C.3     1  UNL1        0.1718
     34 C          21.9418   73.9198    2.2229 C.3     1  UNL1        0.1968
     35 C          24.4060   73.7482    2.6661 C.3     1  UNL1        0.1723
     36 C          22.0370   72.5884    1.4674 C.3     1  UNL1        0.2706
     37 C          24.3814   72.4419    1.8755 C.3     1  UNL1        0.1830
     38 H          24.0995   76.2570    2.9585 H       1  UNL1        0.2105
     39 H          20.0872   74.1959    1.6830 H       1  UNL1        0.2106
     40 H          23.4679   72.8240    4.1305 H       1  UNL1        0.2106
     41 O          24.8645   70.2115    2.4195 O.co2   1  UNL1       -0.5466
     42 O          26.5135   71.7462    2.7699 O.co2   1  UNL1       -0.5466
     43 C          25.3819   71.4636    2.4038 C.2     1  UNL1        0.0799
@<TRIPOS>UNITY_ATOM_ATTR
41 1
charge -1
@<TRIPOS>BOND
     1     1     4    1
     2     1    24    1
     3     1     2    1
     4     1     3    2
     5    25    28    1
     6    25    24    1
     7    25    26    1
     8    25    27    2
     9     6    11    1
    10     6    12    1
    11    29    36    1
    12    29    37    1
    13     7     9    1
    14     7    13    1
    15     8    10    1
    16     8    14    1
    17     4     5    1
    18    28    36    1
    19    30    33    1
    20    30    38    1
    21    31    34    1
    22    31    39    1
    23    32    35    1
    24    32    40    1
    25    41    43   ar
    26    15    19    2
    27    42    43   ar
    28    16    22    2
    29    17    12    1
    30    17    19   ar
    31    17    20   ar
    32    18    19   ar
    33    18    22   ar
    34    18    23    1
    35     9    10    1
    36     9    11    1
    37    10    12    1
    38    11     5    1
    39    33    34    1
    40    33    35    1
    41    34    36    1
    42    35    37    1
    43    37    43    1
    44    20    21   ar
    45    21    22   ar
@<TRIPOS>MOLECULE
UDP-glaA
 43 45 0 0 0
SMALL
GASTEIGER

@<TRIPOS>ATOM
      1 P          21.5462   72.6377   -4.7333 P.3     1  UNL1        0.2189
      2 O          21.4998   74.2474   -4.5787 O.3     1  UNL1       -0.4371
      3 O          22.4238   72.1333   -5.8413 O.2     1  UNL1       -0.5170
      4 O          19.9891   72.2094   -4.8195 O.3     1  UNL1       -0.3112
      5 C          19.4456   71.4176   -3.7769 C.3     1  UNL1        0.1811
      6 O          17.5738   71.8045   -5.2333 O.3     1  UNL1       -0.3308
      7 O          15.9428   70.2738   -3.2362 O.3     1  UNL1       -0.3794
      8 O          16.3844   68.4223   -5.1889 O.3     1  UNL1       -0.3779
      9 C          17.2942   70.0672   -3.6470 C.3     1  UNL1        0.1713
     10 C          17.3346   69.4557   -5.0316 C.3     1  UNL1        0.1895
     11 C          17.9273   71.4322   -3.8829 C.3     1  UNL1        0.1764
     12 C          17.0432   70.6563   -5.9157 C.3     1  UNL1        0.2383
     13 H          15.9674   70.7017   -2.3634 H       1  UNL1        0.2105
     14 H          16.5742   67.7453   -4.5166 H       1  UNL1        0.2106
     15 O          15.6446   70.7044   -8.3686 O.2     1  UNL1       -0.2464
     16 O          19.5303   70.2425  -10.8029 O.2     1  UNL1       -0.2670
     17 N          17.6641   70.5512   -7.2052 N.ar    1  UNL1       -0.2551
     18 N          17.5804   70.4738   -9.5792 N.ar    1  UNL1       -0.2743
     19 C          16.8711   70.5853   -8.3760 C.ar    1  UNL1        0.3323
     20 C          19.0446   70.4156   -7.3008 C.ar    1  UNL1        0.0869
     21 C          19.7061   70.3111   -8.4555 C.ar    1  UNL1        0.0795
     22 C          18.9522   70.3370   -9.7246 C.ar    1  UNL1        0.2626
     23 H          17.0307   70.4953  -10.4338 H       1  UNL1        0.1734
     24 O          21.9773   72.1440   -3.2549 O.3     1  UNL1       -0.2703
     25 P          23.4309   72.0283   -2.5576 P.3     1  UNL1        0.2208
     26 O          24.1559   73.4113   -2.9793 O.3     1  UNL1       -0.4371
     27 O          24.1951   70.7896   -2.9284 O.2     1  UNL1       -0.5170
     28 O          23.1404   72.1845   -0.9780 O.3     1  UNL1       -0.2858
     29 O          24.4853   71.1625    0.6791 O.3     1  UNL1       -0.3226
     30 O          20.9219   71.8024    2.7218 O.3     1  UNL1       -0.3794
     31 O          20.8988   70.8723   -0.0423 O.3     1  UNL1       -0.3775
     32 O          23.4798   70.9788    3.3613 O.3     1  UNL1       -0.3792
     33 C          21.9780   72.0406    1.7954 C.3     1  UNL1        0.1718
     34 C          22.0630   70.8988    0.7768 C.3     1  UNL1        0.1968
     35 C          23.2963   72.1545    2.5657 C.3     1  UNL1        0.1723
     36 C          23.2997   71.0585   -0.1162 C.3     1  UNL1        0.2706
     37 C          24.4580   72.2677    1.5810 C.3     1  UNL1        0.1830
     38 H          20.9070   72.5468    3.3473 H       1  UNL1        0.2105
     39 H          21.0020   70.1419   -0.6753 H       1  UNL1        0.2106
     40 H          23.7214   70.2429    2.7737 H       1  UNL1        0.2106
     41 O          26.2767   70.9928    2.3366 O.co2   1  UNL1       -0.5466
     42 O          26.3352   73.2334    2.7529 O.co2   1  UNL1       -0.5466
     43 C          25.7769   72.2511    2.2862 C.2     1  UNL1        0.0799
@<TRIPOS>UNITY_ATOM_ATTR
41 1
charge -1
@<TRIPOS>BOND
     1     1     4    1
     2     1    24    1
     3     1     2    1
     4     1     3    2
     5    25    28    1
     6    25    24    1
     7    25    26    1
     8    25    27    2
     9     6    11    1
    10     6    12    1
    11    29    36    1
    12    29    37    1
    13     7     9    1
    14     7    13    1
    15     8    10    1
    16     8    14    1
    17     4     5    1
    18    28    36    1
    19    30    33    1
    20    30    38    1
    21    31    34    1
    22    31    39    1
    23    32    35    1
    24    32    40    1
    25    41    43   ar
    26    15    19    2
    27    42    43   ar
    28    16    22    2
    29    17    12    1
    30    17    19   ar
    31    17    20   ar
    32    18    19   ar
    33    18    22   ar
    34    18    23    1
    35     9    10    1
    36     9    11    1
    37    10    12    1
    38    11     5    1
    39    33    34    1
    40    33    35    1
    41    34    36    1
    42    35    37    1
    43    37    43    1
    44    20    21   ar
    45    21    22   ar
@<TRIPOS>MOLECULE
UDP-glaA
 43 45 0 0 0
SMALL
GASTEIGER

@<TRIPOS>ATOM
      1 P          23.5230   72.1574   -3.3556 P.3     1  UNL1        0.2189
      2 O          24.3403   73.1477   -4.3398 O.3     1  UNL1       -0.4371
      3 O          24.2213   70.8692   -3.0314 O.2     1  UNL1       -0.5170
      4 O          22.0752   72.0136   -4.0619 O.3     1  UNL1       -0.3112
      5 C          21.3534   73.1931   -4.3735 C.3     1  UNL1        0.1811
      6 O          20.6661   72.1148   -6.4080 O.3     1  UNL1       -0.3308
      7 O          20.7159   74.8432   -7.6509 O.3     1  UNL1       -0.3794
      8 O          18.0583   74.4499   -7.1840 O.3     1  UNL1       -0.3779
      9 C          20.3345   74.4593   -6.3300 C.3     1  UNL1        0.1713
     10 C          18.9814   73.7801   -6.3506 C.3     1  UNL1        0.1895
     11 C          21.2523   73.3277   -5.8863 C.3     1  UNL1        0.1764
     12 C          19.3318   72.3936   -6.8633 C.3     1  UNL1        0.2383
     13 H          21.6030   75.2373   -7.5934 H       1  UNL1        0.2105
     14 H          17.9724   75.3606   -6.8531 H       1  UNL1        0.2106
     15 O          16.9333   71.6017   -8.1265 O.2     1  UNL1       -0.2464
     16 O          16.0100   68.5060   -4.8398 O.2     1  UNL1       -0.2670
     17 N          18.4459   71.3830   -6.3602 N.ar    1  UNL1       -0.2551
     18 N          16.4748   70.0610   -6.4888 N.ar    1  UNL1       -0.2743
     19 C          17.2659   71.0605   -7.0705 C.ar    1  UNL1        0.3323
     20 C          18.7494   70.7227   -5.1747 C.ar    1  UNL1        0.0869
     21 C          17.9852   69.7716   -4.6333 C.ar    1  UNL1        0.0795
     22 C          16.7350   69.3764   -5.3118 C.ar    1  UNL1        0.2626
     23 H          15.6213   69.8133   -6.9818 H       1  UNL1        0.1734
     24 O          23.2110   73.0951   -2.0755 O.3     1  UNL1       -0.2703
     25 P          23.8984   74.4699   -1.5757 P.3     1  UNL1        0.2208
     26 O          22.7086   75.5553   -1.7248 O.3     1  UNL1       -0.4371
     27 O          25.1603   74.8290   -2.3068 O.2     1  UNL1       -0.5170
     28 O          24.0812   74.2805    0.0164 O.3     1  UNL1       -0.2858
     29 O          23.7940   72.2384    1.1769 O.3     1  UNL1       -0.3226
     30 O          23.0799   75.0435    4.1602 O.3     1  UNL1       -0.3794
     31 O          22.0428   75.4505    1.4649 O.3     1  UNL1       -0.3775
     32 O          23.3953   72.3030    4.0186 O.3     1  UNL1       -0.3792
     33 C          23.6617   74.4730    2.9914 C.3     1  UNL1        0.1718
     34 C          22.5871   74.2195    1.9287 C.3     1  UNL1        0.1968
     35 C          24.3446   73.1560    3.3704 C.3     1  UNL1        0.1723
     36 C          23.1719   73.4504    0.7375 C.3     1  UNL1        0.2706
     37 C          24.8509   72.4590    2.1095 C.3     1  UNL1        0.1830
     38 H          23.7942   75.1842    4.8048 H       1  UNL1        0.2105
     39 H          21.3762   75.2405    0.7894 H       1  UNL1        0.2106
     40 H          22.7821   71.9575    3.3480 H       1  UNL1        0.2106
     41 O          26.7604   71.1600    2.5227 O.co2   1  UNL1       -0.5466
     42 O          24.7480   70.0897    2.5631 O.co2   1  UNL1       -0.5466
     43 C          25.4105   71.1069    2.4189 C.2     1  UNL1        0.0799
@<TRIPOS>UNITY_ATOM_ATTR
41 1
charge -1
@<TRIPOS>BOND
     1     1     4    1
     2     1    24    1
     3     1     2    1
     4     1     3    2
     5    25    28    1
     6    25    24    1
     7    25    26    1
     8    25    27    2
     9     6    11    1
    10     6    12    1
    11    29    36    1
    12    29    37    1
    13     7     9    1
    14     7    13    1
    15     8    10    1
    16     8    14    1
    17     4     5    1
    18    28    36    1
    19    30    33    1
    20    30    38    1
    21    31    34    1
    22    31    39    1
    23    32    35    1
    24    32    40    1
    25    41    43   ar
    26    15    19    2
    27    42    43   ar
    28    16    22    2
    29    17    12    1
    30    17    19   ar
    31    17    20   ar
    32    18    19   ar
    33    18    22   ar
    34    18    23    1
    35     9    10    1
    36     9    11    1
    37    10    12    1
    38    11     5    1
    39    33    34    1
    40    33    35    1
    41    34    36    1
    42    35    37    1
    43    37    43    1
    44    20    21   ar
    45    21    22   ar
@<TRIPOS>MOLECULE
UDP-glaA
 43 45 0 0 0
SMALL
GASTEIGER

@<TRIPOS>ATOM
      1 P          23.5120   73.4286   -3.3350 P.3     1  UNL1        0.2189
      2 O          24.9722   73.7637   -3.9457 O.3     1  UNL1       -0.4371
      3 O          23.5040   72.4011   -2.2413 O.2     1  UNL1       -0.5170
      4 O          22.6169   73.0780   -4.6355 O.3     1  UNL1       -0.3112
      5 C          21.8975   71.8567   -4.6535 C.3     1  UNL1        0.1811
      6 O          20.5158   70.4764   -6.0535 O.3     1  UNL1       -0.3308
      7 O          20.9681   72.5229   -8.1980 O.3     1  UNL1       -0.3794
      8 O          18.4758   73.1536   -7.2891 O.3     1  UNL1       -0.3779
      9 C          20.8133   72.7080   -6.7910 C.3     1  UNL1        0.1713
     10 C          19.3647   72.5196   -6.3928 C.3     1  UNL1        0.1895
     11 C          21.4920   71.5409   -6.0862 C.3     1  UNL1        0.1764
     12 C          19.2276   71.0066   -6.4068 C.3     1  UNL1        0.2383
     13 H          21.9150   72.6142   -8.3998 H       1  UNL1        0.2105
     14 H          18.7002   74.1000   -7.3035 H       1  UNL1        0.2106
     15 O          16.4650   70.7770   -6.9458 O.2     1  UNL1       -0.2464
     16 O          15.5844   69.1890   -2.7100 O.2     1  UNL1       -0.2670
     17 N          18.2539   70.5357   -5.4636 N.ar    1  UNL1       -0.2551
     18 N          16.0282   69.9869   -4.8360 N.ar    1  UNL1       -0.2743
     19 C          16.8909   70.4592   -5.8339 C.ar    1  UNL1        0.3323
     20 C          18.6528   70.1555   -4.1870 C.ar    1  UNL1        0.0869
     21 C          17.8182   69.7067   -3.2469 C.ar    1  UNL1        0.0795
     22 C          16.3779   69.5973   -3.5524 C.ar    1  UNL1        0.2626
     23 H          15.0434   69.9241   -5.0797 H       1  UNL1        0.1734
     24 O          22.9602   74.8839   -2.8960 O.3     1  UNL1       -0.2703
     25 P          21.6319   75.3125   -2.0809 P.3     1  UNL1        0.2208
     26 O          20.4702   74.4232   -2.7706 O.3     1  UNL1       -0.4371
     27 O          21.3616   76.7899   -2.0767 O.2     1  UNL1       -0.5170
     28 O          21.8252   74.6660   -0.6151 O.3     1  UNL1       -0.2858
     29 O          21.1656   72.5208    0.1349 O.3     1  UNL1       -0.3226
     30 O          20.9473   74.7687    3.6247 O.3     1  UNL1       -0.3794
     31 O          20.0207   75.8742    1.0899 O.3     1  UNL1       -0.3775
     32 O          20.7641   72.0976    2.9453 O.3     1  UNL1       -0.3792
     33 C          21.4253   74.3438    2.3514 C.3     1  UNL1        0.1718
     34 C          20.3305   74.4992    1.2905 C.3     1  UNL1        0.1968
     35 C          21.8565   72.8778    2.4484 C.3     1  UNL1        0.1723
     36 C          20.7757   73.8866   -0.0433 C.3     1  UNL1        0.2706
     37 C          22.2380   72.3623    1.0624 C.3     1  UNL1        0.1830
     38 H          21.6706   74.6507    4.2639 H       1  UNL1        0.2105
     39 H          19.3322   75.9230    0.4055 H       1  UNL1        0.2106
     40 H          20.1036   72.0053    2.2379 H       1  UNL1        0.2106
     41 O          21.4086   70.1714    0.9373 O.co2   1  UNL1       -0.5466
     42 O          23.6573   70.4155    1.2220 O.co2   1  UNL1       -0.5466
     43 C          22.5421   70.8981    1.0878 C.2     1  UNL1        0.0799
@<TRIPOS>UNITY_ATOM_ATTR
41 1
charge -1
@<TRIPOS>BOND
     1     1     4    1
     2     1    24    1
     3     1     2    1
     4     1     3    2
     5    25    28    1
     6    25    24    1
     7    25    26    1
     8    25    27    2
     9     6    11    1
    10     6    12    1
    11    29    36    1
    12    29    37    1
    13     7     9    1
    14     7    13    1
    15     8    10    1
    16     8    14    1
    17     4     5    1
    18    28    36    1
    19    30    33    1
    20    30    38    1
    21    31    34    1
    22    31    39    1
    23    32    35    1
    24    32    40    1
    25    41    43   ar
    26    15    19    2
    27    42    43   ar
    28    16    22    2
    29    17    12    1
    30    17    19   ar
    31    17    20   ar
    32    18    19   ar
    33    18    22   ar
    34    18    23    1
    35     9    10    1
    36     9    11    1
    37    10    12    1
    38    11     5    1
    39    33    34    1
    40    33    35    1
    41    34    36    1
    42    35    37    1
    43    37    43    1
    44    20    21   ar
    45    21    22   ar
@<TRIPOS>MOLECULE
UDP-glaA
 43 45 0 0 0
SMALL
GASTEIGER

@<TRIPOS>ATOM
      1 P          23.3824   72.2464   -2.9494 P.3     1  UNL1        0.2189
      2 O          24.2107   70.8737   -3.1665 O.3     1  UNL1       -0.4371
      3 O          24.1476   73.5017   -3.2508 O.2     1  UNL1       -0.5170
      4 O          22.8052   72.1193   -1.4440 O.3     1  UNL1       -0.3112
      5 C          21.8374   71.1201   -1.1717 C.3     1  UNL1        0.1811
      6 O          21.8625   71.1242    1.2311 O.3     1  UNL1       -0.3308
      7 O          19.7064   73.2014    1.0637 O.3     1  UNL1       -0.3794
      8 O          21.9307   74.6922    1.5793 O.3     1  UNL1       -0.3779
      9 C          20.8371   73.0028    0.2153 C.3     1  UNL1        0.1713
     10 C          22.1021   73.4597    0.9106 C.3     1  UNL1        0.1895
     11 C          21.0688   71.5032    0.0850 C.3     1  UNL1        0.1764
     12 C          22.3705   72.3093    1.8658 C.3     1  UNL1        0.2383
     13 H          18.9273   72.8593    0.5931 H       1  UNL1        0.2105
     14 H          21.6552   75.3489    0.9168 H       1  UNL1        0.2106
     15 O          23.8223   69.9582    1.2828 O.2     1  UNL1       -0.2464
     16 O          27.7353   71.7460    2.9354 O.2     1  UNL1       -0.2670
     17 N          23.7695   72.1332    2.1325 N.ar    1  UNL1       -0.2551
     18 N          25.7698   70.8498    2.1066 N.ar    1  UNL1       -0.2743
     19 C          24.4036   70.9127    1.8021 C.ar    1  UNL1        0.3323
     20 C          24.4990   73.1633    2.7157 C.ar    1  UNL1        0.0869
     21 C          25.8012   73.0880    2.9993 C.ar    1  UNL1        0.0795
     22 C          26.5379   71.8474    2.6867 C.ar    1  UNL1        0.2626
     23 H          26.2462   69.9815    1.8783 H       1  UNL1        0.1734
     24 O          22.0666   72.0239   -3.8629 O.3     1  UNL1       -0.2703
     25 P          21.6625   72.6305   -5.3055 P.3     1  UNL1        0.2208
     26 O          22.9507   72.2938   -6.2238 O.3     1  UNL1       -0.4371
     27 O          21.2831   74.0835   -5.2784 O.2     1  UNL1       -0.5170
     28 O          20.5038   71.6492   -5.8517 O.3     1  UNL1       -0.2858
     29 O          19.0557   71.8805   -7.7089 O.3     1  UNL1       -0.3226
     30 O          16.6752   69.8124   -5.0005 O.3     1  UNL1       -0.3794
     31 O          18.3966   71.9879   -4.1003 O.3     1  UNL1       -0.3775
     32 O          16.5111   70.5536   -7.6564 O.3     1  UNL1       -0.3792
     33 C          17.8593   70.2207   -5.6799 C.3     1  UNL1        0.1718
     34 C          18.1077   71.7179   -5.4680 C.3     1  UNL1        0.1968
     35 C          17.7013   69.9220   -7.1733 C.3     1  UNL1        0.1723
     36 C          19.2790   72.2018   -6.3320 C.3     1  UNL1        0.2706
     37 C          18.8992   70.4810   -7.9379 C.3     1  UNL1        0.1830
     38 H          16.5564   68.8612   -5.1639 H       1  UNL1        0.2105
     39 H          18.5555   72.9432   -4.0171 H       1  UNL1        0.2106
     40 H          16.6726   71.5102   -7.7188 H       1  UNL1        0.2106
     41 O          19.6816   71.0158  -10.0840 O.co2   1  UNL1       -0.5466
     42 O          17.8474   69.6683   -9.9536 O.co2   1  UNL1       -0.5466
     43 C          18.7258   70.3265   -9.4154 C.2     1  UNL1        0.0799
@<TRIPOS>UNITY_ATOM_ATTR
41 1
charge -1
@<TRIPOS>BOND
     1     1     4    1
     2     1    24    1
     3     1     2    1
     4     1     3    2
     5    25    28    1
     6    25    24    1
     7    25    26    1
     8    25    27    2
     9     6    11    1
    10     6    12    1
    11    29    36    1
    12    29    37    1
    13     7     9    1
    14     7    13    1
    15     8    10    1
    16     8    14    1
    17     4     5    1
    18    28    36    1
    19    30    33    1
    20    30    38    1
    21    31    34    1
    22    31    39    1
    23    32    35    1
    24    32    40    1
    25    41    43   ar
    26    15    19    2
    27    42    43   ar
    28    16    22    2
    29    17    12    1
    30    17    19   ar
    31    17    20   ar
    32    18    19   ar
    33    18    22   ar
    34    18    23    1
    35     9    10    1
    36     9    11    1
    37    10    12    1
    38    11     5    1
    39    33    34    1
    40    33    35    1
    41    34    36    1
    42    35    37    1
    43    37    43    1
    44    20    21   ar
    45    21    22   ar
@<TRIPOS>MOLECULE
UDP-glaA
 43 45 0 0 0
SMALL
GASTEIGER

@<TRIPOS>ATOM
      1 P          23.4686   71.9893   -3.3247 P.3     1  UNL1        0.2189
      2 O          24.1519   72.8623   -4.5029 O.3     1  UNL1       -0.4371
      3 O          24.2290   70.7582   -2.9267 O.2     1  UNL1       -0.5170
      4 O          21.9579   71.7439   -3.8476 O.3     1  UNL1       -0.3112
      5 C          21.4452   72.5932   -4.8600 C.3     1  UNL1        0.1811
      6 O          20.5556   70.5960   -5.8571 O.3     1  UNL1       -0.3308
      7 O          20.8831   71.9897   -8.4919 O.3     1  UNL1       -0.3794
      8 O          18.2176   72.2768   -7.9936 O.3     1  UNL1       -0.3779
      9 C          20.5099   72.5302   -7.2244 C.3     1  UNL1        0.1713
     10 C          19.0856   72.1429   -6.8871 C.3     1  UNL1        0.1895
     11 C          21.3024   71.7976   -6.1497 C.3     1  UNL1        0.1764
     12 C          19.2476   70.6989   -6.4435 C.3     1  UNL1        0.2383
     13 H          21.8125   72.2299   -8.6470 H       1  UNL1        0.2105
     14 H          18.2541   73.2046   -8.2836 H       1  UNL1        0.2106
     15 O          16.6579   69.7639   -7.0714 O.2     1  UNL1       -0.2464
     16 O          15.5693   69.2422   -2.6237 O.2     1  UNL1       -0.2670
     17 N          18.2674   70.3113   -5.4698 N.ar    1  UNL1       -0.2551
     18 N          16.1173   69.5052   -4.8562 N.ar    1  UNL1       -0.2743
     19 C          16.9957   69.8563   -5.8898 C.ar    1  UNL1        0.3323
     20 C          18.5700   70.3842   -4.1146 C.ar    1  UNL1        0.0869
     21 C          17.7218   70.0454   -3.1411 C.ar    1  UNL1        0.0795
     22 C          16.3728   69.5610   -3.4948 C.ar    1  UNL1        0.2626
     23 H          15.1970   69.1759   -5.1348 H       1  UNL1        0.1734
     24 O          23.2713   73.0716   -2.1395 O.3     1  UNL1       -0.2703
     25 P          23.1476   72.8809   -0.5393 P.3     1  UNL1        0.2208
     26 O          21.5620   72.6551   -0.3139 O.3     1  UNL1       -0.4371
     27 O          23.7335   74.0077    0.2625 O.2     1  UNL1       -0.5170
     28 O          23.8111   71.4393   -0.2468 O.3     1  UNL1       -0.2858
     29 O          24.6771   71.6941    1.9406 O.3     1  UNL1       -0.3226
     30 O          20.6011   72.2379    2.5486 O.3     1  UNL1       -0.3794
     31 O          21.5652   70.1680    0.7343 O.3     1  UNL1       -0.3775
     32 O          22.9059   72.5113    4.0462 O.3     1  UNL1       -0.3792
     33 C          21.8586   72.2908    1.8807 C.3     1  UNL1        0.1718
     34 C          22.3988   70.8762    1.6457 C.3     1  UNL1        0.1968
     35 C          22.8420   73.0912    2.7391 C.3     1  UNL1        0.1723
     36 C          23.8253   70.9257    1.0844 C.3     1  UNL1        0.2706
     37 C          24.2325   73.0392    2.1100 C.3     1  UNL1        0.1830
     38 H          20.2991   73.1531    2.6784 H       1  UNL1        0.2105
     39 H          21.9509   69.2846    0.6096 H       1  UNL1        0.2106
     40 H          23.4081   71.6806    3.9915 H       1  UNL1        0.2106
     41 O          26.4872   73.1964    2.7389 O.co2   1  UNL1       -0.5466
     42 O          25.0145   74.5743    3.8017 O.co2   1  UNL1       -0.5466
     43 C          25.2528   73.6990    2.9822 C.2     1  UNL1        0.0799
@<TRIPOS>UNITY_ATOM_ATTR
41 1
charge -1
@<TRIPOS>BOND
     1     1     4    1
     2     1    24    1
     3     1     2    1
     4     1     3    2
     5    25    28    1
     6    25    24    1
     7    25    26    1
     8    25    27    2
     9     6    11    1
    10     6    12    1
    11    29    36    1
    12    29    37    1
    13     7     9    1
    14     7    13    1
    15     8    10    1
    16     8    14    1
    17     4     5    1
    18    28    36    1
    19    30    33    1
    20    30    38    1
    21    31    34    1
    22    31    39    1
    23    32    35    1
    24    32    40    1
    25    41    43   ar
    26    15    19    2
    27    42    43   ar
    28    16    22    2
    29    17    12    1
    30    17    19   ar
    31    17    20   ar
    32    18    19   ar
    33    18    22   ar
    34    18    23    1
    35     9    10    1
    36     9    11    1
    37    10    12    1
    38    11     5    1
    39    33    34    1
    40    33    35    1
    41    34    36    1
    42    35    37    1
    43    37    43    1
    44    20    21   ar
    45    21    22   ar
@<TRIPOS>MOLECULE
UDP-glaA
 43 45 0 0 0
SMALL
GASTEIGER

@<TRIPOS>ATOM
      1 P          20.5244   72.1370   -2.8969 P.3     1  UNL1        0.2189
      2 O          19.4975   72.1931   -1.6481 O.3     1  UNL1       -0.4371
      3 O          20.9472   73.4749   -3.4293 O.2     1  UNL1       -0.5170
      4 O          19.7956   71.1569   -3.9571 O.3     1  UNL1       -0.3112
      5 C          19.0304   70.0717   -3.4612 C.3     1  UNL1        0.1811
      6 O          17.3834   71.1558   -4.8345 O.3     1  UNL1       -0.3308
      7 O          15.3511   69.5009   -3.3777 O.3     1  UNL1       -0.3794
      8 O          15.6382   68.1550   -5.7318 O.3     1  UNL1       -0.3779
      9 C          16.6780   69.1572   -3.7760 C.3     1  UNL1        0.1713
     10 C          16.7328   68.9194   -5.2703 C.3     1  UNL1        0.1895
     11 C          17.5514   70.3949   -3.6180 C.3     1  UNL1        0.1764
     12 C          16.7263   70.3372   -5.8161 C.3     1  UNL1        0.2383
     13 H          15.3729   69.6817   -2.4225 H       1  UNL1        0.2105
     14 H          15.6520   67.3069   -5.2556 H       1  UNL1        0.2106
     15 O          15.4754   70.5778   -8.3365 O.2     1  UNL1       -0.2464
     16 O          19.5231   70.7535  -10.5328 O.2     1  UNL1       -0.2670
     17 N          17.4287   70.4481   -7.0626 N.ar    1  UNL1       -0.2551
     18 N          17.4918   70.6646   -9.4286 N.ar    1  UNL1       -0.2743
     19 C          16.7060   70.5635   -8.2730 C.ar    1  UNL1        0.3323
     20 C          18.8191   70.4416   -7.0777 C.ar    1  UNL1        0.0869
     21 C          19.5539   70.5394   -8.1878 C.ar    1  UNL1        0.0795
     22 C          18.8765   70.6624   -9.4938 C.ar    1  UNL1        0.2626
     23 H          16.9935   70.7479  -10.3105 H       1  UNL1        0.1734
     24 O          21.7337   71.2246   -2.3309 O.3     1  UNL1       -0.2703
     25 P          23.3083   71.5432   -2.1522 P.3     1  UNL1        0.2208
     26 O          23.3842   73.1493   -2.3280 O.3     1  UNL1       -0.4371
     27 O          24.2017   70.7747   -3.0833 O.2     1  UNL1       -0.5170
     28 O          23.6017   71.2894   -0.5859 O.3     1  UNL1       -0.2858
     29 O          23.0374   73.3331    0.4650 O.3     1  UNL1       -0.3226
     30 O          23.9679   70.9114    3.7129 O.3     1  UNL1       -0.3794
     31 O          25.5777   70.8140    1.2829 O.3     1  UNL1       -0.3775
     32 O          22.8824   73.4223    3.3297 O.3     1  UNL1       -0.3792
     33 C          23.4787   71.2646    2.4221 C.3     1  UNL1        0.1718
     34 C          24.6121   71.8241    1.5557 C.3     1  UNL1        0.1968
     35 C          22.3743   72.3132    2.5809 C.3     1  UNL1        0.1723
     36 C          24.0652   72.3652    0.2289 C.3     1  UNL1        0.2706
     37 C          21.9357   72.8091    1.2048 C.3     1  UNL1        0.1830
     38 H          23.2180   70.5654    4.2263 H       1  UNL1        0.2105
     39 H          26.2682   71.2110    0.7257 H       1  UNL1        0.2106
     40 H          23.4816   73.9321    2.7585 H       1  UNL1        0.2106
     41 O          19.6849   73.4465    1.3829 O.co2   1  UNL1       -0.5466
     42 O          21.2368   75.1160    1.3440 O.co2   1  UNL1       -0.5466
     43 C          20.9495   73.9281    1.3151 C.2     1  UNL1        0.0799
@<TRIPOS>UNITY_ATOM_ATTR
41 1
charge -1
@<TRIPOS>BOND
     1     1     4    1
     2     1    24    1
     3     1     2    1
     4     1     3    2
     5    25    28    1
     6    25    24    1
     7    25    26    1
     8    25    27    2
     9     6    11    1
    10     6    12    1
    11    29    36    1
    12    29    37    1
    13     7     9    1
    14     7    13    1
    15     8    10    1
    16     8    14    1
    17     4     5    1
    18    28    36    1
    19    30    33    1
    20    30    38    1
    21    31    34    1
    22    31    39    1
    23    32    35    1
    24    32    40    1
    25    41    43   ar
    26    15    19    2
    27    42    43   ar
    28    16    22    2
    29    17    12    1
    30    17    19   ar
    31    17    20   ar
    32    18    19   ar
    33    18    22   ar
    34    18    23    1
    35     9    10    1
    36     9    11    1
    37    10    12    1
    38    11     5    1
    39    33    34    1
    40    33    35    1
    41    34    36    1
    42    35    37    1
    43    37    43    1
    44    20    21   ar
    45    21    22   ar
@<TRIPOS>MOLECULE
UDP-glaA
 43 45 0 0 0
SMALL
GASTEIGER

@<TRIPOS>ATOM
      1 P          21.2621   71.5636   -2.6296 P.3     1  UNL1        0.2189
      2 O          21.7086   73.1109   -2.4758 O.3     1  UNL1       -0.4371
      3 O          22.2479   70.6886   -3.3470 O.2     1  UNL1       -0.5170
      4 O          19.7872   71.6472   -3.2879 O.3     1  UNL1       -0.3112
      5 C          19.0925   70.4396   -3.5492 C.3     1  UNL1        0.1811
      6 O          17.4455   71.3834   -5.0225 O.3     1  UNL1       -0.3308
      7 O          15.4123   69.8871   -3.4044 O.3     1  UNL1       -0.3794
      8 O          15.6938   68.3109   -5.6117 O.3     1  UNL1       -0.3779
      9 C          16.7381   69.5025   -3.7678 C.3     1  UNL1        0.1713
     10 C          16.7904   69.1158   -5.2307 C.3     1  UNL1        0.1895
     11 C          17.6138   70.7482   -3.7359 C.3     1  UNL1        0.1764
     12 C          16.7857   70.4716   -5.9161 C.3     1  UNL1        0.2383
     13 H          15.4357   70.1629   -2.4722 H       1  UNL1        0.2105
     14 H          15.7068   67.5149   -5.0528 H       1  UNL1        0.2106
     15 O          15.5390   70.6383   -8.4447 O.2     1  UNL1       -0.2464
     16 O          19.5761   70.3973  -10.6543 O.2     1  UNL1       -0.2670
     17 N          17.4865   70.4553   -7.1683 N.ar    1  UNL1       -0.2551
     18 N          17.5501   70.5176   -9.5433 N.ar    1  UNL1       -0.2743
     19 C          16.7662   70.5436   -8.3824 C.ar    1  UNL1        0.3323
     20 C          18.8731   70.3525   -7.1852 C.ar    1  UNL1        0.0869
     21 C          19.6062   70.3296   -8.3005 C.ar    1  UNL1        0.0795
     22 C          18.9311   70.4163   -9.6105 C.ar    1  UNL1        0.2626
     23 H          17.0534   70.5792  -10.4280 H       1  UNL1        0.1734
     24 O          20.9545   71.1219   -1.1046 O.3     1  UNL1       -0.2703
     25 P          21.8734   71.1859    0.2235 P.3     1  UNL1        0.2208
     26 O          23.3795   71.1513   -0.3652 O.3     1  UNL1       -0.4371
     27 O          21.5765   70.1116    1.2303 O.2     1  UNL1       -0.5170
     28 O          21.6862   72.6896    0.7783 O.3     1  UNL1       -0.2858
     29 O          22.8493   73.8435    2.4857 O.3     1  UNL1       -0.3226
     30 O          25.5700   70.8853    1.4244 O.3     1  UNL1       -0.3794
     31 O          24.0327   72.2868   -0.6197 O.3     1  UNL1       -0.3775
     32 O          25.3536   72.7908    3.4125 O.3     1  UNL1       -0.3792
     33 C          24.3053   71.4971    1.6625 C.3     1  UNL1        0.1718
     34 C          24.1134   72.7047    0.7388 C.3     1  UNL1        0.1968
     35 C          24.2378   71.9411    3.1263 C.3     1  UNL1        0.1723
     36 C          22.8355   73.4702    1.1039 C.3     1  UNL1        0.2706
     37 C          22.9492   72.7249    3.3658 C.3     1  UNL1        0.1830
     38 H          25.6491   70.1294    2.0310 H       1  UNL1        0.2105
     39 H          23.9022   73.0816   -1.1639 H       1  UNL1        0.2106
     40 H          25.1992   73.6548    2.9943 H       1  UNL1        0.2106
     41 O          23.3485   74.5686    4.7605 O.co2   1  UNL1       -0.5466
     42 O          22.5112   72.6880    5.7400 O.co2   1  UNL1       -0.5466
     43 C          22.9015   73.2897    4.7499 C.2     1  UNL1        0.0799
@<TRIPOS>UNITY_ATOM_ATTR
41 1
charge -1
@<TRIPOS>BOND
     1     1     4    1
     2     1    24    1
     3     1     2    1
     4     1     3    2
     5    25    28    1
     6    25    24    1
     7    25    26    1
     8    25    27    2
     9     6    11    1
    10     6    12    1
    11    29    36    1
    12    29    37    1
    13     7     9    1
    14     7    13    1
    15     8    10    1
    16     8    14    1
    17     4     5    1
    18    28    36    1
    19    30    33    1
    20    30    38    1
    21    31    34    1
    22    31    39    1
    23    32    35    1
    24    32    40    1
    25    41    43   ar
    26    15    19    2
    27    42    43   ar
    28    16    22    2
    29    17    12    1
    30    17    19   ar
    31    17    20   ar
    32    18    19   ar
    33    18    22   ar
    34    18    23    1
    35     9    10    1
    36     9    11    1
    37    10    12    1
    38    11     5    1
    39    33    34    1
    40    33    35    1
    41    34    36    1
    42    35    37    1
    43    37    43    1
    44    20    21   ar
    45    21    22   ar
@<TRIPOS>MOLECULE
UDP-glaA
 43 45 0 0 0
SMALL
GASTEIGER

@<TRIPOS>ATOM
      1 P          21.8894   72.4453   -5.7464 P.3     1  UNL1        0.2189
      2 O          21.1985   73.8445   -5.3193 O.3     1  UNL1       -0.4371
      3 O          23.0948   72.5785   -6.6304 O.2     1  UNL1       -0.5170
      4 O          20.6672   71.5756   -6.3507 O.3     1  UNL1       -0.3112
      5 C          20.1270   71.9481   -7.6072 C.3     1  UNL1        0.1811
      6 O          18.8958   69.9288   -7.1820 O.3     1  UNL1       -0.3308
      7 O          18.1105   70.0202  -10.0745 O.3     1  UNL1       -0.3794
      8 O          15.8910   70.9926   -8.8238 O.3     1  UNL1       -0.3779
      9 C          18.2973   71.0959   -9.1549 C.3     1  UNL1        0.1713
     10 C          17.1383   71.1633   -8.1829 C.3     1  UNL1        0.1895
     11 C          19.4601   70.7349   -8.2398 C.3     1  UNL1        0.1764
     12 C          17.4628   70.0294   -7.2254 C.3     1  UNL1        0.2383
     13 H          18.8935   69.9919  -10.6503 H       1  UNL1        0.2105
     14 H          15.8084   71.6922   -9.4946 H       1  UNL1        0.2106
     15 O          16.2922   68.0635   -5.5699 O.2     1  UNL1       -0.2464
     16 O          15.6103   71.0831   -2.1558 O.2     1  UNL1       -0.2670
     17 N          16.9714   70.2739   -5.8995 N.ar    1  UNL1       -0.2551
     18 N          15.9530   69.5686   -3.8711 N.ar    1  UNL1       -0.2743
     19 C          16.4003   69.2177   -5.1517 C.ar    1  UNL1        0.3323
     20 C          17.0575   71.5494   -5.3526 C.ar    1  UNL1        0.0869
     21 C          16.6268   71.8678   -4.1299 C.ar    1  UNL1        0.0795
     22 C          16.0167   70.8228   -3.2841 C.ar    1  UNL1        0.2626
     23 H          15.5382   68.8252   -3.3157 H       1  UNL1        0.1734
     24 O          22.1736   71.7322   -4.3230 O.3     1  UNL1       -0.2703
     25 P          23.3821   71.9190   -3.2661 P.3     1  UNL1        0.2208
     26 O          24.0720   73.3056   -3.7326 O.3     1  UNL1       -0.4371
     27 O          24.3239   70.7512   -3.1946 O.2     1  UNL1       -0.5170
     28 O          22.6537   72.2745   -1.8707 O.3     1  UNL1       -0.2858
     29 O          23.2678   70.8551   -0.0797 O.3     1  UNL1       -0.3226
     30 O          20.1063   73.0024    1.5553 O.3     1  UNL1       -0.3794
     31 O          19.9848   72.0529   -1.1996 O.3     1  UNL1       -0.3775
     32 O          22.0042   71.2170    2.4719 O.3     1  UNL1       -0.3792
     33 C          21.2555   72.7414    0.7543 C.3     1  UNL1        0.1718
     34 C          20.9613   71.6268   -0.2553 C.3     1  UNL1        0.1968
     35 C          22.4127   72.3286    1.6680 C.3     1  UNL1        0.1723
     36 C          22.2372   71.2208   -1.0033 C.3     1  UNL1        0.2706
     37 C          23.6111   71.9078    0.8201 C.3     1  UNL1        0.1830
     38 H          20.3387   73.7107    2.1797 H       1  UNL1        0.2105
     39 H          19.8388   71.3204   -1.8216 H       1  UNL1        0.2106
     40 H          21.9760   70.4237    1.9106 H       1  UNL1        0.2106
     41 O          24.6944   70.0190    1.6935 O.co2   1  UNL1       -0.5466
     42 O          25.5446   72.0574    2.2584 O.co2   1  UNL1       -0.5466
     43 C          24.7210   71.3734    1.6684 C.2     1  UNL1        0.0799
@<TRIPOS>UNITY_ATOM_ATTR
41 1
charge -1
@<TRIPOS>BOND
     1     1     4    1
     2     1    24    1
     3     1     2    1
     4     1     3    2
     5    25    28    1
     6    25    24    1
     7    25    26    1
     8    25    27    2
     9     6    11    1
    10     6    12    1
    11    29    36    1
    12    29    37    1
    13     7     9    1
    14     7    13    1
    15     8    10    1
    16     8    14    1
    17     4     5    1
    18    28    36    1
    19    30    33    1
    20    30    38    1
    21    31    34    1
    22    31    39    1
    23    32    35    1
    24    32    40    1
    25    41    43   ar
    26    15    19    2
    27    42    43   ar
    28    16    22    2
    29    17    12    1
    30    17    19   ar
    31    17    20   ar
    32    18    19   ar
    33    18    22   ar
    34    18    23    1
    35     9    10    1
    36     9    11    1
    37    10    12    1
    38    11     5    1
    39    33    34    1
    40    33    35    1
    41    34    36    1
    42    35    37    1
    43    37    43    1
    44    20    21   ar
    45    21    22   ar
@<TRIPOS>MOLECULE
UDP-glaA
 43 45 0 0 0
SMALL
GASTEIGER

@<TRIPOS>ATOM
      1 P          22.3694   73.2138   -7.2192 P.3     1  UNL1        0.2189
      2 O          21.3011   74.2006   -6.5104 O.3     1  UNL1       -0.4371
      3 O          23.3344   73.8889   -8.1493 O.2     1  UNL1       -0.5170
      4 O          21.4528   72.0551   -7.8771 O.3     1  UNL1       -0.3112
      5 C          20.0646   72.0451   -7.5907 C.3     1  UNL1        0.1811
      6 O          18.9065   69.9840   -7.1601 O.3     1  UNL1       -0.3308
      7 O          18.1037   70.0489  -10.0485 O.3     1  UNL1       -0.3794
      8 O          15.8582   70.9432   -8.7860 O.3     1  UNL1       -0.3779
      9 C          18.2578   71.1302   -9.1294 C.3     1  UNL1        0.1713
     10 C          17.1021   71.1570   -8.1515 C.3     1  UNL1        0.1895
     11 C          19.4370   70.8096   -8.2204 C.3     1  UNL1        0.1764
     12 C          17.4708   70.0347   -7.1961 C.3     1  UNL1        0.2383
     13 H          18.8843   70.0480  -10.6283 H       1  UNL1        0.2105
     14 H          15.7480   71.6396   -9.4561 H       1  UNL1        0.2106
     15 O          16.2659   68.0556   -5.5816 O.2     1  UNL1       -0.2464
     16 O          15.6146   71.0207   -2.1143 O.2     1  UNL1       -0.2670
     17 N          16.9779   70.2616   -5.8676 N.ar    1  UNL1       -0.2551
     18 N          15.9419   69.5335   -3.8563 N.ar    1  UNL1       -0.2743
     19 C          16.3890   69.2001   -5.1416 C.ar    1  UNL1        0.3323
     20 C          17.0802   71.5254   -5.2968 C.ar    1  UNL1        0.0869
     21 C          16.6496   71.8273   -4.0699 C.ar    1  UNL1        0.0795
     22 C          16.0214   70.7756   -3.2458 C.ar    1  UNL1        0.2626
     23 H          15.5145   68.7861   -3.3162 H       1  UNL1        0.1734
     24 O          23.0578   72.4629   -5.9633 O.3     1  UNL1       -0.2703
     25 P          22.6316   72.3941   -4.4056 P.3     1  UNL1        0.2208
     26 O          23.9212   71.7223   -3.6974 O.3     1  UNL1       -0.4371
     27 O          21.3389   71.6725   -4.1521 O.2     1  UNL1       -0.5170
     28 O          22.6465   73.9294   -3.9093 O.3     1  UNL1       -0.2858
     29 O          22.8891   74.9608   -1.7935 O.3     1  UNL1       -0.3226
     30 O          20.0321   77.3696   -3.6142 O.3     1  UNL1       -0.3794
     31 O          19.9392   74.4707   -3.9208 O.3     1  UNL1       -0.3775
     32 O          21.5345   77.4422   -1.2974 O.3     1  UNL1       -0.3792
     33 C          21.1724   76.5226   -3.5014 C.3     1  UNL1        0.1718
     34 C          20.7633   75.1430   -2.9744 C.3     1  UNL1        0.1968
     35 C          22.1785   77.1710   -2.5466 C.3     1  UNL1        0.1723
     36 C          22.0001   74.2826   -2.6872 C.3     1  UNL1        0.2706
     37 C          23.3433   76.2143   -2.3014 C.3     1  UNL1        0.1830
     38 H          20.3378   78.2302   -3.9479 H       1  UNL1        0.2105
     39 H          19.7141   73.6014   -3.5487 H       1  UNL1        0.2106
     40 H          21.4108   76.6018   -0.8247 H       1  UNL1        0.2106
     41 O          24.9272   75.7434   -0.6361 O.co2   1  UNL1       -0.5466
     42 O          24.4639   77.9393   -1.0371 O.co2   1  UNL1       -0.5466
     43 C          24.2868   76.7530   -1.2735 C.2     1  UNL1        0.0799
@<TRIPOS>UNITY_ATOM_ATTR
41 1
charge -1
@<TRIPOS>BOND
     1     1     4    1
     2     1    24    1
     3     1     2    1
     4     1     3    2
     5    25    28    1
     6    25    24    1
     7    25    26    1
     8    25    27    2
     9     6    11    1
    10     6    12    1
    11    29    36    1
    12    29    37    1
    13     7     9    1
    14     7    13    1
    15     8    10    1
    16     8    14    1
    17     4     5    1
    18    28    36    1
    19    30    33    1
    20    30    38    1
    21    31    34    1
    22    31    39    1
    23    32    35    1
    24    32    40    1
    25    41    43   ar
    26    15    19    2
    27    42    43   ar
    28    16    22    2
    29    17    12    1
    30    17    19   ar
    31    17    20   ar
    32    18    19   ar
    33    18    22   ar
    34    18    23    1
    35     9    10    1
    36     9    11    1
    37    10    12    1
    38    11     5    1
    39    33    34    1
    40    33    35    1
    41    34    36    1
    42    35    37    1
    43    37    43    1
    44    20    21   ar
    45    21    22   ar
@<TRIPOS>MOLECULE
UDP-glaA
 43 45 0 0 0
SMALL
GASTEIGER

@<TRIPOS>ATOM
      1 P          21.8524   72.3684   -5.6910 P.3     1  UNL1        0.2189
      2 O          21.2219   73.8434   -5.4810 O.3     1  UNL1       -0.4371
      3 O          23.1421   72.3346   -6.4575 O.2     1  UNL1       -0.5170
      4 O          20.6359   71.5110   -6.3240 O.3     1  UNL1       -0.3112
      5 C          20.1290   71.8890   -7.5926 C.3     1  UNL1        0.1811
      6 O          18.8375   69.9067   -7.1725 O.3     1  UNL1       -0.3308
      7 O          18.0909   70.0038  -10.0750 O.3     1  UNL1       -0.3794
      8 O          15.8837   71.0436   -8.8573 O.3     1  UNL1       -0.3779
      9 C          18.2959   71.0790   -9.1587 C.3     1  UNL1        0.1713
     10 C          17.1271   71.1835   -8.2017 C.3     1  UNL1        0.1895
     11 C          19.4368   70.6912   -8.2272 C.3     1  UNL1        0.1764
     12 C          17.4085   70.0463   -7.2344 C.3     1  UNL1        0.2383
     13 H          18.8799   69.9508  -10.6408 H       1  UNL1        0.2105
     14 H          15.8287   71.7415   -9.5326 H       1  UNL1        0.2106
     15 O          16.5475   68.0567   -5.4246 O.2     1  UNL1       -0.2464
     16 O          15.5029   71.1813   -2.2022 O.2     1  UNL1       -0.2670
     17 N          16.9075   70.3115   -5.9160 N.ar    1  UNL1       -0.2551
     18 N          16.0274   69.6140   -3.8213 N.ar    1  UNL1       -0.2743
     19 C          16.5002   69.2407   -5.0864 C.ar    1  UNL1        0.3323
     20 C          16.8235   71.6213   -5.4569 C.ar    1  UNL1        0.0869
     21 C          16.3709   71.9608   -4.2479 C.ar    1  UNL1        0.0795
     22 C          15.9248   70.9024   -3.3203 C.ar    1  UNL1        0.2626
     23 H          15.7284   68.8606   -3.2080 H       1  UNL1        0.1734
     24 O          21.9512   71.7982   -4.1809 O.3     1  UNL1       -0.2703
     25 P          23.1200   71.9300   -3.0722 P.3     1  UNL1        0.2208
     26 O          23.7019   73.4184   -3.3216 O.3     1  UNL1       -0.4371
     27 O          24.1534   70.8419   -3.1343 O.2     1  UNL1       -0.5170
     28 O          22.3385   72.0277   -1.6638 O.3     1  UNL1       -0.2858
     29 O          23.8470   72.9542   -0.0937 O.3     1  UNL1       -0.3226
     30 O          20.4237   72.4136    2.2016 O.3     1  UNL1       -0.3794
     31 O          21.2490   70.3883    0.2721 O.3     1  UNL1       -0.3775
     32 O          22.8814   73.6328    2.5228 O.3     1  UNL1       -0.3792
     33 C          21.2150   72.6907    1.0495 C.3     1  UNL1        0.1718
     34 C          22.0723   71.4740    0.6847 C.3     1  UNL1        0.1968
     35 C          22.1134   73.8952    1.3437 C.3     1  UNL1        0.1723
     36 C          23.0506   71.8179   -0.4453 C.3     1  UNL1        0.2706
     37 C          23.0695   74.1201    0.1744 C.3     1  UNL1        0.1830
     38 H          19.9009   73.2099    2.3968 H       1  UNL1        0.2105
     39 H          21.8342   69.6468    0.0431 H       1  UNL1        0.2106
     40 H          23.5751   72.9883    2.3025 H       1  UNL1        0.2106
     41 O          23.6034   75.9963    1.4777 O.co2   1  UNL1       -0.5466
     42 O          25.1198   75.3647   -0.1030 O.co2   1  UNL1       -0.5466
     43 C          24.0532   75.2064    0.4730 C.2     1  UNL1        0.0799
@<TRIPOS>UNITY_ATOM_ATTR
41 1
charge -1
@<TRIPOS>BOND
     1     1     4    1
     2     1    24    1
     3     1     2    1
     4     1     3    2
     5    25    28    1
     6    25    24    1
     7    25    26    1
     8    25    27    2
     9     6    11    1
    10     6    12    1
    11    29    36    1
    12    29    37    1
    13     7     9    1
    14     7    13    1
    15     8    10    1
    16     8    14    1
    17     4     5    1
    18    28    36    1
    19    30    33    1
    20    30    38    1
    21    31    34    1
    22    31    39    1
    23    32    35    1
    24    32    40    1
    25    41    43   ar
    26    15    19    2
    27    42    43   ar
    28    16    22    2
    29    17    12    1
    30    17    19   ar
    31    17    20   ar
    32    18    19   ar
    33    18    22   ar
    34    18    23    1
    35     9    10    1
    36     9    11    1
    37    10    12    1
    38    11     5    1
    39    33    34    1
    40    33    35    1
    41    34    36    1
    42    35    37    1
    43    37    43    1
    44    20    21   ar
    45    21    22   ar
@<TRIPOS>MOLECULE
UDP-glaA
 43 45 0 0 0
SMALL
GASTEIGER

@<TRIPOS>ATOM
      1 P          22.4956   72.2405   -1.6758 P.3     1  UNL1        0.2189
      2 O          23.0043   73.7700   -1.5371 O.3     1  UNL1       -0.4371
      3 O          23.5762   71.2033   -1.5830 O.2     1  UNL1       -0.5170
      4 O          21.6352   72.2386   -3.0451 O.3     1  UNL1       -0.3112
      5 C          20.9471   71.0546   -3.4111 C.3     1  UNL1        0.1811
      6 O          18.8252   71.7687   -4.2840 O.3     1  UNL1       -0.3308
      7 O          17.5886   70.2082   -2.0419 O.3     1  UNL1       -0.3794
      8 O          17.2873   68.5317   -4.1713 O.3     1  UNL1       -0.3779
      9 C          18.7541   69.9140   -2.8118 C.3     1  UNL1        0.1713
     10 C          18.3637   69.4462   -4.1979 C.3     1  UNL1        0.1895
     11 C          19.4657   71.2278   -3.1075 C.3     1  UNL1        0.1764
     12 C          18.0026   70.7535   -4.8823 C.3     1  UNL1        0.2383
     13 H          17.8879   70.5403   -1.1784 H       1  UNL1        0.2105
     14 H          17.5600   67.7744   -3.6252 H       1  UNL1        0.2106
     15 O          20.5450   70.3416   -6.0407 O.2     1  UNL1       -0.2464
     16 O          18.8498   70.6493  -10.3150 O.2     1  UNL1       -0.2670
     17 N          18.2544   70.7206   -6.2947 N.ar    1  UNL1       -0.2551
     18 N          19.6993   70.4956   -8.1683 N.ar    1  UNL1       -0.2743
     19 C          19.5683   70.5079   -6.7734 C.ar    1  UNL1        0.3323
     20 C          17.2055   70.8983   -7.1901 C.ar    1  UNL1        0.0869
     21 C          17.3466   70.8834   -8.5174 C.ar    1  UNL1        0.0795
     22 C          18.6863   70.6680   -9.0989 C.ar    1  UNL1        0.2626
     23 H          20.6352   70.3449   -8.5351 H       1  UNL1        0.1734
     24 O          21.3578   72.1319   -0.5318 O.3     1  UNL1       -0.2703
     25 P          21.4734   71.8450    1.0547 P.3     1  UNL1        0.2208
     26 O          21.7515   70.2532    1.1246 O.3     1  UNL1       -0.4371
     27 O          20.2853   72.3024    1.8515 O.2     1  UNL1       -0.5170
     28 O          22.8707   72.5233    1.4922 O.3     1  UNL1       -0.2858
     29 O          24.5293   72.0142    3.1014 O.3     1  UNL1       -0.3226
     30 O          24.3099   76.1573    3.3575 O.3     1  UNL1       -0.3794
     31 O          21.8861   74.5600    3.0751 O.3     1  UNL1       -0.3775
     32 O          25.9400   74.1694    4.3677 O.3     1  UNL1       -0.3792
     33 C          24.2766   74.8643    2.7598 C.3     1  UNL1        0.1718
     34 C          23.1645   74.0151    3.3847 C.3     1  UNL1        0.1968
     35 C          25.6336   74.1868    2.9696 C.3     1  UNL1        0.1723
     36 C          23.2307   72.5711    2.8722 C.3     1  UNL1        0.2706
     37 C          25.5727   72.7478    2.4620 C.3     1  UNL1        0.1830
     38 H          25.0282   76.6578    2.9342 H       1  UNL1        0.2105
     39 H          21.2160   73.9856    3.4823 H       1  UNL1        0.2106
     40 H          25.3796   73.5019    4.7985 H       1  UNL1        0.2106
     41 O          26.7072   70.6943    2.4541 O.co2   1  UNL1       -0.5466
     42 O          27.8511   72.5095    3.2247 O.co2   1  UNL1       -0.5466
     43 C          26.8363   72.0069    2.7642 C.2     1  UNL1        0.0799
@<TRIPOS>UNITY_ATOM_ATTR
41 1
charge -1
@<TRIPOS>BOND
     1     1     4    1
     2     1    24    1
     3     1     2    1
     4     1     3    2
     5    25    28    1
     6    25    24    1
     7    25    26    1
     8    25    27    2
     9     6    11    1
    10     6    12    1
    11    29    36    1
    12    29    37    1
    13     7     9    1
    14     7    13    1
    15     8    10    1
    16     8    14    1
    17     4     5    1
    18    28    36    1
    19    30    33    1
    20    30    38    1
    21    31    34    1
    22    31    39    1
    23    32    35    1
    24    32    40    1
    25    41    43   ar
    26    15    19    2
    27    42    43   ar
    28    16    22    2
    29    17    12    1
    30    17    19   ar
    31    17    20   ar
    32    18    19   ar
    33    18    22   ar
    34    18    23    1
    35     9    10    1
    36     9    11    1
    37    10    12    1
    38    11     5    1
    39    33    34    1
    40    33    35    1
    41    34    36    1
    42    35    37    1
    43    37    43    1
    44    20    21   ar
    45    21    22   ar
@<TRIPOS>MOLECULE
UDP-glaA
 43 45 0 0 0
SMALL
GASTEIGER

@<TRIPOS>ATOM
      1 P          23.4884   72.2334   -3.4942 P.3     1  UNL1        0.2189
      2 O          24.0128   70.7215   -3.2566 O.3     1  UNL1       -0.4371
      3 O          24.5335   73.1978   -3.9737 O.2     1  UNL1       -0.5170
      4 O          22.7635   72.6180   -2.1006 O.3     1  UNL1       -0.3112
      5 C          23.5503   72.6836   -0.9233 C.3     1  UNL1        0.1811
      6 O          24.4963   71.1937    0.7075 O.3     1  UNL1       -0.3308
      7 O          21.6977   70.2200    1.1670 O.3     1  UNL1       -0.3794
      8 O          22.0954   71.9052    3.2736 O.3     1  UNL1       -0.3779
      9 C          22.1582   71.5384    0.8711 C.3     1  UNL1        0.1713
     10 C          22.8229   72.1479    2.0873 C.3     1  UNL1        0.1895
     11 C          23.3227   71.4215   -0.1036 C.3     1  UNL1        0.1764
     12 C          24.1786   71.4622    2.0831 C.3     1  UNL1        0.2383
     13 H          21.3157   69.8563    0.3501 H       1  UNL1        0.2105
     14 H          21.2059   72.2801    3.1533 H       1  UNL1        0.2106
     15 O          26.8716   70.6645    2.3779 O.2     1  UNL1       -0.2464
     16 O          28.0499   74.6976    4.2710 O.2     1  UNL1       -0.2670
     17 N          25.2102   72.2836    2.6491 N.ar    1  UNL1       -0.2551
     18 N          27.4565   72.6731    3.3209 N.ar    1  UNL1       -0.2743
     19 C          26.5309   71.7879    2.7527 C.ar    1  UNL1        0.3323
     20 C          24.9088   73.5658    3.0949 C.ar    1  UNL1        0.0869
     21 C          25.8027   74.3979    3.6339 C.ar    1  UNL1        0.0795
     22 C          27.2041   73.9570    3.7790 C.ar    1  UNL1        0.2626
     23 H          28.4122   72.3378    3.4059 H       1  UNL1        0.1734
     24 O          22.2440   72.0304   -4.5068 O.3     1  UNL1       -0.2703
     25 P          20.8174   71.2991   -4.3003 P.3     1  UNL1        0.2208
     26 O          20.0777   72.2313   -3.2049 O.3     1  UNL1       -0.4371
     27 O          20.9177   69.8508   -3.9156 O.2     1  UNL1       -0.5170
     28 O          20.0164   71.5699   -5.6747 O.3     1  UNL1       -0.2858
     29 O          18.2390   70.0279   -5.4248 O.3     1  UNL1       -0.3226
     30 O          16.9554   72.3221   -8.6449 O.3     1  UNL1       -0.3794
     31 O          19.7486   71.5129   -8.4221 O.3     1  UNL1       -0.3775
     32 O          15.8785   70.3622   -7.0234 O.3     1  UNL1       -0.3792
     33 C          17.5968   72.0154   -7.4100 C.3     1  UNL1        0.1718
     34 C          18.6996   70.9732   -7.6250 C.3     1  UNL1        0.1968
     35 C          16.5514   71.4772   -6.4293 C.3     1  UNL1        0.1723
     36 C          19.2787   70.5103   -6.2823 C.3     1  UNL1        0.2706
     37 C          17.2411   71.0098   -5.1494 C.3     1  UNL1        0.1830
     38 H          16.2652   72.9818   -8.4610 H       1  UNL1        0.2105
     39 H          20.4254   70.8226   -8.5227 H       1  UNL1        0.2106
     40 H          16.4820   69.6000   -7.0207 H       1  UNL1        0.2106
     41 O          16.2294   69.0199   -4.4279 O.co2   1  UNL1       -0.5466
     42 O          15.6135   70.9416   -3.3673 O.co2   1  UNL1       -0.5466
     43 C          16.2740   70.3570   -4.2137 C.2     1  UNL1        0.0799
@<TRIPOS>UNITY_ATOM_ATTR
41 1
charge -1
@<TRIPOS>BOND
     1     1     4    1
     2     1    24    1
     3     1     2    1
     4     1     3    2
     5    25    28    1
     6    25    24    1
     7    25    26    1
     8    25    27    2
     9     6    11    1
    10     6    12    1
    11    29    36    1
    12    29    37    1
    13     7     9    1
    14     7    13    1
    15     8    10    1
    16     8    14    1
    17     4     5    1
    18    28    36    1
    19    30    33    1
    20    30    38    1
    21    31    34    1
    22    31    39    1
    23    32    35    1
    24    32    40    1
    25    41    43   ar
    26    15    19    2
    27    42    43   ar
    28    16    22    2
    29    17    12    1
    30    17    19   ar
    31    17    20   ar
    32    18    19   ar
    33    18    22   ar
    34    18    23    1
    35     9    10    1
    36     9    11    1
    37    10    12    1
    38    11     5    1
    39    33    34    1
    40    33    35    1
    41    34    36    1
    42    35    37    1
    43    37    43    1
    44    20    21   ar
    45    21    22   ar
@<TRIPOS>MOLECULE
UDP-glaA
 43 45 0 0 0
SMALL
GASTEIGER

@<TRIPOS>ATOM
      1 P          22.3012   73.0349   -6.8671 P.3     1  UNL1        0.2189
      2 O          21.2579   74.0186   -6.1180 O.3     1  UNL1       -0.4371
      3 O          23.1571   73.6945   -7.9085 O.2     1  UNL1       -0.5170
      4 O          21.3793   71.8118   -7.3866 O.3     1  UNL1       -0.3112
      5 C          19.9751   71.9974   -7.4405 C.3     1  UNL1        0.1811
      6 O          18.7315   69.9895   -6.9977 O.3     1  UNL1       -0.3308
      7 O          18.0579   69.9852   -9.9196 O.3     1  UNL1       -0.3794
      8 O          15.7905   70.9914   -8.7873 O.3     1  UNL1       -0.3779
      9 C          18.2076   71.0906   -9.0288 C.3     1  UNL1        0.1713
     10 C          17.0119   71.1862   -8.1048 C.3     1  UNL1        0.1895
     11 C          19.3348   70.7626   -8.0585 C.3     1  UNL1        0.1764
     12 C          17.3011   70.0847   -7.0993 C.3     1  UNL1        0.2383
     13 H          18.8626   69.9404  -10.4637 H       1  UNL1        0.2105
     14 H          15.7328   71.6687   -9.4831 H       1  UNL1        0.2106
     15 O          16.5366   68.1192   -5.2211 O.2     1  UNL1       -0.2464
     16 O          15.2290   71.2988   -2.1521 O.2     1  UNL1       -0.2670
     17 N          16.7586   70.3706   -5.8019 N.ar    1  UNL1       -0.2551
     18 N          15.8855   69.7038   -3.6943 N.ar    1  UNL1       -0.2743
     19 C          16.4058   69.3105   -4.9343 C.ar    1  UNL1        0.3323
     20 C          16.5807   71.6899   -5.4003 C.ar    1  UNL1        0.0869
     21 C          16.0837   72.0485   -4.2145 C.ar    1  UNL1        0.0795
     22 C          15.6896   71.0024   -3.2502 C.ar    1  UNL1        0.2626
     23 H          15.6244   68.9584   -3.0545 H       1  UNL1        0.1734
     24 O          23.1221   72.3750   -5.6399 O.3     1  UNL1       -0.2703
     25 P          22.8260   72.3634   -4.0510 P.3     1  UNL1        0.2208
     26 O          24.0396   71.4765   -3.4538 O.3     1  UNL1       -0.4371
     27 O          21.4567   71.8679   -3.6832 O.2     1  UNL1       -0.5170
     28 O          23.1429   73.8691   -3.5649 O.3     1  UNL1       -0.2858
     29 O          24.8844   75.0125   -4.6871 O.3     1  UNL1       -0.3226
     30 O          24.2644   77.4224   -1.3573 O.3     1  UNL1       -0.3794
     31 O          24.2289   74.5166   -1.1105 O.3     1  UNL1       -0.3775
     32 O          25.7271   77.5709   -3.6957 O.3     1  UNL1       -0.3792
     33 C          23.9480   76.5386   -2.4293 C.3     1  UNL1        0.1718
     34 C          24.6932   75.2098   -2.2640 C.3     1  UNL1        0.1968
     35 C          24.3454   77.2012   -3.7512 C.3     1  UNL1        0.1723
     36 C          24.4953   74.3190   -3.4968 C.3     1  UNL1        0.2706
     37 C          24.1464   76.2148   -4.8999 C.3     1  UNL1        0.1830
     38 H          23.7738   78.2490   -1.5041 H       1  UNL1        0.2105
     39 H          24.7210   73.6803   -1.0528 H       1  UNL1        0.2106
     40 H          26.2658   76.7653   -3.7727 H       1  UNL1        0.2106
     41 O          24.3246   78.0872   -6.3022 O.co2   1  UNL1       -0.5466
     42 O          25.2577   76.1433   -7.0423 O.co2   1  UNL1       -0.5466
     43 C          24.6439   76.7749   -6.1944 C.2     1  UNL1        0.0799
@<TRIPOS>UNITY_ATOM_ATTR
41 1
charge -1
@<TRIPOS>BOND
     1     1     4    1
     2     1    24    1
     3     1     2    1
     4     1     3    2
     5    25    28    1
     6    25    24    1
     7    25    26    1
     8    25    27    2
     9     6    11    1
    10     6    12    1
    11    29    36    1
    12    29    37    1
    13     7     9    1
    14     7    13    1
    15     8    10    1
    16     8    14    1
    17     4     5    1
    18    28    36    1
    19    30    33    1
    20    30    38    1
    21    31    34    1
    22    31    39    1
    23    32    35    1
    24    32    40    1
    25    41    43   ar
    26    15    19    2
    27    42    43   ar
    28    16    22    2
    29    17    12    1
    30    17    19   ar
    31    17    20   ar
    32    18    19   ar
    33    18    22   ar
    34    18    23    1
    35     9    10    1
    36     9    11    1
    37    10    12    1
    38    11     5    1
    39    33    34    1
    40    33    35    1
    41    34    36    1
    42    35    37    1
    43    37    43    1
    44    20    21   ar
    45    21    22   ar
@<TRIPOS>MOLECULE
UDP-glaA
 43 45 0 0 0
SMALL
GASTEIGER

@<TRIPOS>ATOM
      1 P          23.6030   72.4748   -3.3832 P.3     1  UNL1        0.2189
      2 O          24.1735   70.9719   -3.2012 O.3     1  UNL1       -0.4371
      3 O          24.6290   73.4985   -3.7722 O.2     1  UNL1       -0.5170
      4 O          22.8125   72.7616   -2.0018 O.3     1  UNL1       -0.3112
      5 C          23.5476   72.7704   -0.7899 C.3     1  UNL1        0.1811
      6 O          24.5789   71.0836    0.5760 O.3     1  UNL1       -0.3308
      7 O          21.7960   70.1927    1.2493 O.3     1  UNL1       -0.3794
      8 O          22.5073   71.6380    3.4495 O.3     1  UNL1       -0.3779
      9 C          22.2938   71.5126    1.0309 C.3     1  UNL1        0.1713
     10 C          23.1166   71.9667    2.2181 C.3     1  UNL1        0.1895
     11 C          23.3398   71.4433   -0.0740 C.3     1  UNL1        0.1764
     12 C          24.4245   71.2259    1.9977 C.3     1  UNL1        0.2383
     13 H          21.3099   69.9303    0.4491 H       1  UNL1        0.2105
     14 H          21.6319   72.0619    3.4652 H       1  UNL1        0.2106
     15 O          24.3735   73.9385    2.7817 O.2     1  UNL1       -0.2464
     16 O          28.8201   73.8625    3.9902 O.2     1  UNL1       -0.2670
     17 N          25.5539   71.9400    2.5210 N.ar    1  UNL1       -0.2551
     18 N          26.5879   73.8990    3.3824 N.ar    1  UNL1       -0.2743
     19 C          25.4230   73.3008    2.8841 C.ar    1  UNL1        0.3323
     20 C          26.7753   71.2922    2.6699 C.ar    1  UNL1        0.0869
     21 C          27.8766   71.8763    3.1470 C.ar    1  UNL1        0.0795
     22 C          27.8251   73.2960    3.5485 C.ar    1  UNL1        0.2626
     23 H          26.5174   74.8772    3.6493 H       1  UNL1        0.1734
     24 O          22.4059   72.2807   -4.4531 O.3     1  UNL1       -0.2703
     25 P          22.0187   73.1252   -5.7758 P.3     1  UNL1        0.2208
     26 O          22.9890   72.5030   -6.9105 O.3     1  UNL1       -0.4371
     27 O          22.1323   74.6138   -5.6113 O.2     1  UNL1       -0.5170
     28 O          20.5423   72.6091   -6.1729 O.3     1  UNL1       -0.2858
     29 O          19.4547   70.6171   -5.5034 O.3     1  UNL1       -0.3226
     30 O          17.7894   71.3016   -9.2500 O.3     1  UNL1       -0.3794
     31 O          20.6362   71.7393   -8.7916 O.3     1  UNL1       -0.3775
     32 O          17.3434   69.5719   -7.1431 O.3     1  UNL1       -0.3792
     33 C          18.3509   71.6033   -7.9757 C.3     1  UNL1        0.1718
     34 C          19.7804   71.0595   -7.8792 C.3     1  UNL1        0.1968
     35 C          17.4765   70.9740   -6.8877 C.3     1  UNL1        0.1723
     36 C          20.3305   71.2270   -6.4573 C.3     1  UNL1        0.2706
     37 C          18.1373   71.1646   -5.5242 C.3     1  UNL1        0.1830
     38 H          16.8862   71.6614   -9.2652 H       1  UNL1        0.2105
     39 H          21.5289   71.3689   -8.6879 H       1  UNL1        0.2106
     40 H          18.1835   69.1363   -6.9203 H       1  UNL1        0.2106
     41 O          18.2235   69.7161   -3.6807 O.co2   1  UNL1       -0.5466
     42 O          16.1752   70.5240   -4.2713 O.co2   1  UNL1       -0.5466
     43 C          17.3830   70.4531   -4.4463 C.2     1  UNL1        0.0799
@<TRIPOS>UNITY_ATOM_ATTR
41 1
charge -1
@<TRIPOS>BOND
     1     1     4    1
     2     1    24    1
     3     1     2    1
     4     1     3    2
     5    25    28    1
     6    25    24    1
     7    25    26    1
     8    25    27    2
     9     6    11    1
    10     6    12    1
    11    29    36    1
    12    29    37    1
    13     7     9    1
    14     7    13    1
    15     8    10    1
    16     8    14    1
    17     4     5    1
    18    28    36    1
    19    30    33    1
    20    30    38    1
    21    31    34    1
    22    31    39    1
    23    32    35    1
    24    32    40    1
    25    41    43   ar
    26    15    19    2
    27    42    43   ar
    28    16    22    2
    29    17    12    1
    30    17    19   ar
    31    17    20   ar
    32    18    19   ar
    33    18    22   ar
    34    18    23    1
    35     9    10    1
    36     9    11    1
    37    10    12    1
    38    11     5    1
    39    33    34    1
    40    33    35    1
    41    34    36    1
    42    35    37    1
    43    37    43    1
    44    20    21   ar
    45    21    22   ar
@<TRIPOS>MOLECULE
UDP-glaA
 43 45 0 0 0
SMALL
GASTEIGER

@<TRIPOS>ATOM
      1 P          22.6892   73.0752   -4.4861 P.3     1  UNL1        0.2189
      2 O          23.9065   72.1051   -4.0453 O.3     1  UNL1       -0.4371
      3 O          23.0627   74.5173   -4.6670 O.2     1  UNL1       -0.5170
      4 O          21.5384   72.7795   -3.3889 O.3     1  UNL1       -0.3112
      5 C          21.3555   71.4470   -2.9413 C.3     1  UNL1        0.1811
      6 O          20.6637   70.7011   -0.7643 O.3     1  UNL1       -0.3308
      7 O          18.4502   72.7120   -0.9844 O.3     1  UNL1       -0.3794
      8 O          20.2515   73.9825    0.6209 O.3     1  UNL1       -0.3779
      9 C          19.7964   72.7959   -1.4517 C.3     1  UNL1        0.1713
     10 C          20.7421   73.0216   -0.2910 C.3     1  UNL1        0.1895
     11 C          20.2121   71.4135   -1.9372 C.3     1  UNL1        0.1764
     12 C          20.8329   71.6323    0.3172 C.3     1  UNL1        0.2383
     13 H          17.8867   72.5285   -1.7553 H       1  UNL1        0.2105
     14 H          20.1186   74.8113    0.1294 H       1  UNL1        0.2106
     15 O          21.3477   72.0244    3.0661 O.2     1  UNL1       -0.2464
     16 O          25.7326   70.6769    2.6241 O.2     1  UNL1       -0.2670
     17 N          22.0995   71.3914    0.9472 N.ar    1  UNL1       -0.2551
     18 N          23.5310   71.3537    2.8441 N.ar    1  UNL1       -0.2743
     19 C          22.2535   71.6207    2.3345 C.ar    1  UNL1        0.3323
     20 C          23.1732   70.9329    0.1921 C.ar    1  UNL1        0.0869
     21 C          24.3850   70.6826    0.6928 C.ar    1  UNL1        0.0795
     22 C          24.6298   70.8971    2.1328 C.ar    1  UNL1        0.2626
     23 H          23.6651   71.5120    3.8391 H       1  UNL1        0.1734
     24 O          22.1161   72.3559   -5.8163 O.3     1  UNL1       -0.2703
     25 P          21.0745   72.8758   -6.9376 P.3     1  UNL1        0.2208
     26 O          21.5283   72.0729   -8.2663 O.3     1  UNL1       -0.4371
     27 O          21.0363   74.3686   -7.0980 O.2     1  UNL1       -0.5170
     28 O          19.6626   72.2136   -6.5226 O.3     1  UNL1       -0.2858
     29 O          18.9761   70.1667   -5.5540 O.3     1  UNL1       -0.3226
     30 O          16.1173   70.7295   -8.5188 O.3     1  UNL1       -0.3794
     31 O          18.9239   71.3335   -9.0330 O.3     1  UNL1       -0.3775
     32 O          16.5004   68.9909   -6.4069 O.3     1  UNL1       -0.3792
     33 C          17.0549   71.0714   -7.5018 C.3     1  UNL1        0.1718
     34 C          18.4625   70.6115   -7.8960 C.3     1  UNL1        0.1968
     35 C          16.6319   70.4000   -6.1923 C.3     1  UNL1        0.1723
     36 C          19.4462   70.8197   -6.7378 C.3     1  UNL1        0.2706
     37 C          17.6990   70.6372   -5.1259 C.3     1  UNL1        0.1830
     38 H          15.2423   71.0366   -8.2264 H       1  UNL1        0.2105
     39 H          19.8192   71.0158   -9.2387 H       1  UNL1        0.2106
     40 H          17.3898   68.6058   -6.4835 H       1  UNL1        0.2106
     41 O          16.1345   70.1690   -3.4416 O.co2   1  UNL1       -0.5466
     42 O          18.1583   69.1295   -3.2968 O.co2   1  UNL1       -0.5466
     43 C          17.3903   69.8906   -3.8673 C.2     1  UNL1        0.0799
@<TRIPOS>UNITY_ATOM_ATTR
41 1
charge -1
@<TRIPOS>BOND
     1     1     4    1
     2     1    24    1
     3     1     2    1
     4     1     3    2
     5    25    28    1
     6    25    24    1
     7    25    26    1
     8    25    27    2
     9     6    11    1
    10     6    12    1
    11    29    36    1
    12    29    37    1
    13     7     9    1
    14     7    13    1
    15     8    10    1
    16     8    14    1
    17     4     5    1
    18    28    36    1
    19    30    33    1
    20    30    38    1
    21    31    34    1
    22    31    39    1
    23    32    35    1
    24    32    40    1
    25    41    43   ar
    26    15    19    2
    27    42    43   ar
    28    16    22    2
    29    17    12    1
    30    17    19   ar
    31    17    20   ar
    32    18    19   ar
    33    18    22   ar
    34    18    23    1
    35     9    10    1
    36     9    11    1
    37    10    12    1
    38    11     5    1
    39    33    34    1
    40    33    35    1
    41    34    36    1
    42    35    37    1
    43    37    43    1
    44    20    21   ar
    45    21    22   ar
@<TRIPOS>MOLECULE
UDP-glaA
 43 45 0 0 0
SMALL
GASTEIGER

@<TRIPOS>ATOM
      1 P          23.3895   72.0915   -3.1903 P.3     1  UNL1        0.2189
      2 O          23.8490   72.9402   -4.4888 O.3     1  UNL1       -0.4371
      3 O          23.9316   70.6938   -3.1234 O.2     1  UNL1       -0.5170
      4 O          21.7774   72.2210   -3.1907 O.3     1  UNL1       -0.3112
      5 C          21.0178   71.2227   -3.8508 C.3     1  UNL1        0.1811
      6 O          18.8935   71.9112   -4.7382 O.3     1  UNL1       -0.3308
      7 O          17.6679   70.5075   -2.3890 O.3     1  UNL1       -0.3794
      8 O          17.3157   68.7085   -4.4078 O.3     1  UNL1       -0.3779
      9 C          18.8188   70.1509   -3.1545 C.3     1  UNL1        0.1713
     10 C          18.4034   69.6048   -4.5042 C.3     1  UNL1        0.1895
     11 C          19.5431   71.4343   -3.5392 C.3     1  UNL1        0.1764
     12 C          18.0497   70.8727   -5.2626 C.3     1  UNL1        0.2383
     13 H          17.9832   70.8875   -1.5513 H       1  UNL1        0.2105
     14 H          17.5862   67.9822   -3.8199 H       1  UNL1        0.2106
     15 O          16.0862   70.1052   -7.1416 O.2     1  UNL1       -0.2464
     16 O          19.0544   70.4344  -10.6516 O.2     1  UNL1       -0.2670
     17 N          18.2816   70.7503   -6.6735 N.ar    1  UNL1       -0.2551
     18 N          17.5656   70.2691   -8.8881 N.ar    1  UNL1       -0.2743
     19 C          17.2278   70.3571   -7.5312 C.ar    1  UNL1        0.3323
     20 C          19.5426   71.0185   -7.1945 C.ar    1  UNL1        0.0869
     21 C          19.8487   70.9305   -8.4908 C.ar    1  UNL1        0.0795
     22 C          18.8052   70.5254   -9.4534 C.ar    1  UNL1        0.2626
     23 H          16.8238   69.9876   -9.5233 H       1  UNL1        0.1734
     24 O          23.8299   73.0444   -1.9602 O.3     1  UNL1       -0.2703
     25 P          23.4173   74.5641   -1.5958 P.3     1  UNL1        0.2208
     26 O          22.2463   74.8962   -2.6610 O.3     1  UNL1       -0.4371
     27 O          24.5636   75.5344   -1.6121 O.2     1  UNL1       -0.5170
     28 O          22.6584   74.4526   -0.1761 O.3     1  UNL1       -0.2858
     29 O          22.6954   72.7984    1.5156 O.3     1  UNL1       -0.3226
     30 O          18.7386   74.0678    1.6250 O.3     1  UNL1       -0.3794
     31 O          20.1082   73.7046   -0.9242 O.3     1  UNL1       -0.3775
     32 O          20.3622   72.4312    3.1466 O.3     1  UNL1       -0.3792
     33 C          20.1519   74.1518    1.4643 C.3     1  UNL1        0.1718
     34 C          20.6150   73.2405    0.3226 C.3     1  UNL1        0.1968
     35 C          20.8250   73.7335    2.7744 C.3     1  UNL1        0.1723
     36 C          22.1464   73.1918    0.2536 C.3     1  UNL1        0.2706
     37 C          22.3387   73.6799    2.5793 C.3     1  UNL1        0.1830
     38 H          18.4911   74.6572    2.3578 H       1  UNL1        0.2105
     39 H          20.4343   73.1040   -1.6154 H       1  UNL1        0.2106
     40 H          20.7759   71.7766    2.5587 H       1  UNL1        0.2106
     41 O          24.1089   73.9095    4.1017 O.co2   1  UNL1       -0.5466
     42 O          22.6721   72.1712    4.4347 O.co2   1  UNL1       -0.5466
     43 C          23.0288   73.1507    3.7962 C.2     1  UNL1        0.0799
@<TRIPOS>UNITY_ATOM_ATTR
41 1
charge -1
@<TRIPOS>BOND
     1     1     4    1
     2     1    24    1
     3     1     2    1
     4     1     3    2
     5    25    28    1
     6    25    24    1
     7    25    26    1
     8    25    27    2
     9     6    11    1
    10     6    12    1
    11    29    36    1
    12    29    37    1
    13     7     9    1
    14     7    13    1
    15     8    10    1
    16     8    14    1
    17     4     5    1
    18    28    36    1
    19    30    33    1
    20    30    38    1
    21    31    34    1
    22    31    39    1
    23    32    35    1
    24    32    40    1
    25    41    43   ar
    26    15    19    2
    27    42    43   ar
    28    16    22    2
    29    17    12    1
    30    17    19   ar
    31    17    20   ar
    32    18    19   ar
    33    18    22   ar
    34    18    23    1
    35     9    10    1
    36     9    11    1
    37    10    12    1
    38    11     5    1
    39    33    34    1
    40    33    35    1
    41    34    36    1
    42    35    37    1
    43    37    43    1
    44    20    21   ar
    45    21    22   ar
