@<TRIPOS>MOLECULE
UDP-glaA
 43 45 0 0 0
SMALL
GASTEIGER

@<TRIPOS>ATOM
      1 P          22.7361   71.6430   -2.7986 P.3     1  UNL1        0.2189
      2 O          22.6254   73.1996   -2.3718 O.3     1  UNL1       -0.4371
      3 O          24.0918   71.2129   -3.2776 O.2     1  UNL1       -0.5170
      4 O          21.5226   71.4393   -3.8481 O.3     1  UNL1       -0.3112
      5 C          20.6549   70.3321   -3.6738 C.3     1  UNL1        0.1811
      6 O          18.8095   71.5221   -4.6498 O.3     1  UNL1       -0.3308
      7 O          17.1183   70.2803   -2.5076 O.3     1  UNL1       -0.3794
      8 O          16.5618   68.7288   -4.6800 O.3     1  UNL1       -0.3779
      9 C          18.2270   69.7276   -3.2170 C.3     1  UNL1        0.1713
     10 C          17.8200   69.3692   -4.6307 C.3     1  UNL1        0.1895
     11 C          19.2385   70.8422   -3.4495 C.3     1  UNL1        0.1764
     12 C          17.8108   70.7277   -5.3107 C.3     1  UNL1        0.2383
     13 H          17.4356   70.5301   -1.6231 H       1  UNL1        0.2105
     14 H          16.6202   67.9264   -4.1331 H       1  UNL1        0.2106
     15 O          15.9168   70.2697   -7.3548 O.2     1  UNL1       -0.2464
     16 O          19.1493   70.4229  -10.6359 O.2     1  UNL1       -0.2670
     17 N          18.1295   70.6438   -6.7073 N.ar    1  UNL1       -0.2551
     18 N          17.5278   70.3458   -8.9872 N.ar    1  UNL1       -0.2743
     19 C          17.1042   70.4098   -7.6532 C.ar    1  UNL1        0.3323
     20 C          19.4465   70.7925   -7.1279 C.ar    1  UNL1        0.0869
     21 C          19.8342   70.7294   -8.4036 C.ar    1  UNL1        0.0795
     22 C          18.8254   70.4871   -9.4540 C.ar    1  UNL1        0.2626
     23 H          16.8077   70.1778   -9.6846 H       1  UNL1        0.1734
     24 O          22.2103   70.8676   -1.4805 O.3     1  UNL1       -0.2703
     25 P          21.5406   71.4249   -0.1190 P.3     1  UNL1        0.2208
     26 O          21.3580   70.0911    0.7776 O.3     1  UNL1       -0.4371
     27 O          20.2765   72.2080   -0.3300 O.2     1  UNL1       -0.5170
     28 O          22.7213   72.2486    0.6100 O.3     1  UNL1       -0.2858
     29 O          24.0493   71.8310    2.5235 O.3     1  UNL1       -0.3226
     30 O          23.4134   75.9307    2.7825 O.3     1  UNL1       -0.3794
     31 O          21.2529   74.1441    1.9787 O.3     1  UNL1       -0.3775
     32 O          24.9695   74.0567    4.0850 O.3     1  UNL1       -0.3792
     33 C          23.6200   74.6589    2.1742 C.3     1  UNL1        0.1718
     34 C          22.4828   73.6997    2.5415 C.3     1  UNL1        0.1968
     35 C          24.9590   74.0921    2.6540 C.3     1  UNL1        0.1723
     36 C          22.7820   72.2832    2.0352 C.3     1  UNL1        0.2706
     37 C          25.1329   72.6697    2.1260 C.3     1  UNL1        0.1830
     38 H          24.1563   76.5031    2.5254 H       1  UNL1        0.2105
     39 H          20.5668   73.5027    2.2293 H       1  UNL1        0.2106
     40 H          24.3937   73.3311    4.3802 H       1  UNL1        0.2106
     41 O          26.3738   70.6997    2.4142 O.co2   1  UNL1       -0.5466
     42 O          27.2547   72.6171    3.2773 O.co2   1  UNL1       -0.5466
     43 C          26.3674   72.0290    2.6760 C.2     1  UNL1        0.0799
@<TRIPOS>UNITY_ATOM_ATTR
41 1
charge -1
@<TRIPOS>BOND
     1     1     4    1
     2     1    24    1
     3     1     2    1
     4     1     3    2
     5    25    28    1
     6    25    24    1
     7    25    26    1
     8    25    27    2
     9     6    11    1
    10     6    12    1
    11    29    36    1
    12    29    37    1
    13     7     9    1
    14     7    13    1
    15     8    10    1
    16     8    14    1
    17     4     5    1
    18    28    36    1
    19    30    33    1
    20    30    38    1
    21    31    34    1
    22    31    39    1
    23    32    35    1
    24    32    40    1
    25    41    43   ar
    26    15    19    2
    27    42    43   ar
    28    16    22    2
    29    17    12    1
    30    17    19   ar
    31    17    20   ar
    32    18    19   ar
    33    18    22   ar
    34    18    23    1
    35     9    10    1
    36     9    11    1
    37    10    12    1
    38    11     5    1
    39    33    34    1
    40    33    35    1
    41    34    36    1
    42    35    37    1
    43    37    43    1
    44    20    21   ar
    45    21    22   ar
@<TRIPOS>MOLECULE
UDP-glaA
 43 45 0 0 0
SMALL
GASTEIGER

@<TRIPOS>ATOM
      1 P          23.3649   71.7888   -3.3238 P.3     1  UNL1        0.2189
      2 O          24.0774   72.9763   -4.1602 O.3     1  UNL1       -0.4371
      3 O          24.2552   70.6282   -2.9887 O.2     1  UNL1       -0.5170
      4 O          22.0475   71.4361   -4.1930 O.3     1  UNL1       -0.3112
      5 C          21.6206   72.3587   -5.1808 C.3     1  UNL1        0.1811
      6 O          20.5546   70.4317   -6.1422 O.3     1  UNL1       -0.3308
      7 O          20.7223   71.8787   -8.7632 O.3     1  UNL1       -0.3794
      8 O          18.1259   72.2741   -8.0297 O.3     1  UNL1       -0.3779
      9 C          20.4850   72.4017   -7.4563 C.3     1  UNL1        0.1713
     10 C          19.0777   72.0711   -7.0059 C.3     1  UNL1        0.1895
     11 C          21.3304   71.6052   -6.4711 C.3     1  UNL1        0.1764
     12 C          19.2077   70.6099   -6.6107 C.3     1  UNL1        0.2383
     13 H          21.6455   72.0801   -8.9927 H       1  UNL1        0.2105
     14 H          18.1819   73.2066   -8.3007 H       1  UNL1        0.2106
     15 O          16.5381   69.7920   -7.0346 O.2     1  UNL1       -0.2464
     16 O          15.8031   69.2228   -2.5208 O.2     1  UNL1       -0.2670
     17 N          18.2968   70.2417   -5.5648 N.ar    1  UNL1       -0.2551
     18 N          16.1737   69.5096   -4.7866 N.ar    1  UNL1       -0.2743
     19 C          16.9767   69.8465   -5.8843 C.ar    1  UNL1        0.3323
     20 C          18.7140   70.2746   -4.2388 C.ar    1  UNL1        0.0869
     21 C          17.9365   69.9499   -3.2035 C.ar    1  UNL1        0.0795
     22 C          16.5438   69.5271   -3.4508 C.ar    1  UNL1        0.2626
     23 H          15.2205   69.2230   -4.9924 H       1  UNL1        0.1734
     24 O          22.7569   72.5635   -2.0410 O.3     1  UNL1       -0.2703
     25 P          21.2978   72.4872   -1.3499 P.3     1  UNL1        0.2208
     26 O          21.0252   70.8972   -1.2330 O.3     1  UNL1       -0.4371
     27 O          20.2290   73.2473   -2.0818 O.2     1  UNL1       -0.5170
     28 O          21.5393   72.9730    0.1699 O.3     1  UNL1       -0.2858
     29 O          22.5366   71.3044    1.5191 O.3     1  UNL1       -0.3226
     30 O          21.6091   74.2420    4.3101 O.3     1  UNL1       -0.3794
     31 O          19.7385   73.5877    2.1704 O.3     1  UNL1       -0.3775
     32 O          23.0287   71.8725    4.2893 O.3     1  UNL1       -0.3792
     33 C          21.9981   73.6788    3.0604 C.3     1  UNL1        0.1718
     34 C          20.8768   72.7982    2.4988 C.3     1  UNL1        0.1968
     35 C          23.2658   72.8450    3.2661 C.3     1  UNL1        0.1723
     36 C          21.3481   72.0531    1.2438 C.3     1  UNL1        0.2706
     37 C          23.6181   72.1185    1.9698 C.3     1  UNL1        0.1830
     38 H          22.3481   74.7880    4.6285 H       1  UNL1        0.2105
     39 H          19.0609   72.9905    1.8112 H       1  UNL1        0.2106
     40 H          22.4570   71.1752    3.9261 H       1  UNL1        0.2106
     41 O          24.4938   69.9649    1.6556 O.co2   1  UNL1       -0.5466
     42 O          25.8343   71.4895    2.6928 O.co2   1  UNL1       -0.5466
     43 C          24.7755   71.1905    2.1599 C.2     1  UNL1        0.0799
@<TRIPOS>UNITY_ATOM_ATTR
41 1
charge -1
@<TRIPOS>BOND
     1     1     4    1
     2     1    24    1
     3     1     2    1
     4     1     3    2
     5    25    28    1
     6    25    24    1
     7    25    26    1
     8    25    27    2
     9     6    11    1
    10     6    12    1
    11    29    36    1
    12    29    37    1
    13     7     9    1
    14     7    13    1
    15     8    10    1
    16     8    14    1
    17     4     5    1
    18    28    36    1
    19    30    33    1
    20    30    38    1
    21    31    34    1
    22    31    39    1
    23    32    35    1
    24    32    40    1
    25    41    43   ar
    26    15    19    2
    27    42    43   ar
    28    16    22    2
    29    17    12    1
    30    17    19   ar
    31    17    20   ar
    32    18    19   ar
    33    18    22   ar
    34    18    23    1
    35     9    10    1
    36     9    11    1
    37    10    12    1
    38    11     5    1
    39    33    34    1
    40    33    35    1
    41    34    36    1
    42    35    37    1
    43    37    43    1
    44    20    21   ar
    45    21    22   ar
@<TRIPOS>MOLECULE
UDP-glaA
 43 45 0 0 0
SMALL
GASTEIGER

@<TRIPOS>ATOM
      1 P          22.5629   72.3935   -4.5556 P.3     1  UNL1        0.2189
      2 O          22.9800   72.4507   -6.1177 O.3     1  UNL1       -0.4371
      3 O          23.2717   71.3449   -3.7493 O.2     1  UNL1       -0.5170
      4 O          20.9496   72.2850   -4.5867 O.3     1  UNL1       -0.3112
      5 C          20.3259   71.2494   -3.8467 C.3     1  UNL1        0.1811
      6 O          18.3836   72.0009   -5.0455 O.3     1  UNL1       -0.3308
      7 O          16.7727   70.7289   -2.8596 O.3     1  UNL1       -0.3794
      8 O          16.6237   68.8825   -4.8607 O.3     1  UNL1       -0.3779
      9 C          18.0019   70.2978   -3.4435 C.3     1  UNL1        0.1713
     10 C          17.7556   69.7269   -4.8241 C.3     1  UNL1        0.1895
     11 C          18.8337   71.5352   -3.7541 C.3     1  UNL1        0.1764
     12 C          17.5737   70.9838   -5.6578 C.3     1  UNL1        0.2383
     13 H          16.9843   71.1217   -1.9956 H       1  UNL1        0.2105
     14 H          16.7733   68.1646   -4.2217 H       1  UNL1        0.2106
     15 O          15.8755   70.1733   -7.7636 O.2     1  UNL1       -0.2464
     16 O          19.3068   70.3313  -10.8359 O.2     1  UNL1       -0.2670
     17 N          17.9965   70.8058   -7.0175 N.ar    1  UNL1       -0.2551
     18 N          17.5854   70.2520   -9.2920 N.ar    1  UNL1       -0.2743
     19 C          17.0646   70.3951   -7.9992 C.ar    1  UNL1        0.3323
     20 C          19.3222   71.0373   -7.3672 C.ar    1  UNL1        0.0869
     21 C          19.8033   70.8969   -8.6044 C.ar    1  UNL1        0.0795
     22 C          18.8958   70.4702   -9.6880 C.ar    1  UNL1        0.2626
     23 H          16.9335   69.9570  -10.0139 H       1  UNL1        0.1734
     24 O          22.8153   73.9111   -4.0574 O.3     1  UNL1       -0.2703
     25 P          24.0075   74.5527   -3.1744 P.3     1  UNL1        0.2208
     26 O          23.6393   76.1274   -3.1423 O.3     1  UNL1       -0.4371
     27 O          25.3860   74.2487   -3.6872 O.2     1  UNL1       -0.5170
     28 O          23.7264   74.0369   -1.6715 O.3     1  UNL1       -0.2858
     29 O          21.7388   73.0757   -0.8201 O.3     1  UNL1       -0.3226
     30 O          23.3448   74.8904    2.5573 O.3     1  UNL1       -0.3794
     31 O          23.4283   76.2359   -0.0289 O.3     1  UNL1       -0.3775
     32 O          21.2518   73.1740    2.0069 O.3     1  UNL1       -0.3792
     33 C          23.3193   74.2083    1.3066 C.3     1  UNL1        0.1718
     34 C          22.6464   75.0765    0.2380 C.3     1  UNL1        0.1968
     35 C          22.5508   72.8947    1.4745 C.3     1  UNL1        0.1723
     36 C          22.4598   74.2879   -1.0642 C.3     1  UNL1        0.2706
     37 C          22.3895   72.2172    0.1154 C.3     1  UNL1        0.1830
     38 H          23.7760   74.3043    3.2024 H       1  UNL1        0.2105
     39 H          22.9690   76.7479   -0.7157 H       1  UNL1        0.2106
     40 H          20.7080   73.5682    1.3040 H       1  UNL1        0.2106
     41 O          21.9276   70.2141    1.2459 O.co2   1  UNL1       -0.5466
     42 O          20.6009   70.7311   -0.5344 O.co2   1  UNL1       -0.5466
     43 C          21.5328   70.9950    0.2115 C.2     1  UNL1        0.0799
@<TRIPOS>UNITY_ATOM_ATTR
41 1
charge -1
@<TRIPOS>BOND
     1     1     4    1
     2     1    24    1
     3     1     2    1
     4     1     3    2
     5    25    28    1
     6    25    24    1
     7    25    26    1
     8    25    27    2
     9     6    11    1
    10     6    12    1
    11    29    36    1
    12    29    37    1
    13     7     9    1
    14     7    13    1
    15     8    10    1
    16     8    14    1
    17     4     5    1
    18    28    36    1
    19    30    33    1
    20    30    38    1
    21    31    34    1
    22    31    39    1
    23    32    35    1
    24    32    40    1
    25    41    43   ar
    26    15    19    2
    27    42    43   ar
    28    16    22    2
    29    17    12    1
    30    17    19   ar
    31    17    20   ar
    32    18    19   ar
    33    18    22   ar
    34    18    23    1
    35     9    10    1
    36     9    11    1
    37    10    12    1
    38    11     5    1
    39    33    34    1
    40    33    35    1
    41    34    36    1
    42    35    37    1
    43    37    43    1
    44    20    21   ar
    45    21    22   ar
@<TRIPOS>MOLECULE
UDP-glaA
 43 45 0 0 0
SMALL
GASTEIGER

@<TRIPOS>ATOM
      1 P          21.1927   72.3946   -4.4312 P.3     1  UNL1        0.2189
      2 O          20.3047   73.6482   -3.9241 O.3     1  UNL1       -0.4371
      3 O          22.1420   72.7035   -5.5517 O.2     1  UNL1       -0.5170
      4 O          20.1009   71.2403   -4.7330 O.3     1  UNL1       -0.3112
      5 C          19.4302   70.6393   -3.6383 C.3     1  UNL1        0.1811
      6 O          17.6895   71.5348   -5.0319 O.3     1  UNL1       -0.3308
      7 O          15.7660   70.1269   -3.2128 O.3     1  UNL1       -0.3794
      8 O          15.8820   68.4561   -5.3647 O.3     1  UNL1       -0.3779
      9 C          17.0606   69.7153   -3.6512 C.3     1  UNL1        0.1713
     10 C          17.0076   69.2664   -5.0963 C.3     1  UNL1        0.1895
     11 C          17.9440   70.9532   -3.7342 C.3     1  UNL1        0.1764
     12 C          16.9629   70.5919   -5.8372 C.3     1  UNL1        0.2383
     13 H          15.8566   70.4418   -2.2972 H       1  UNL1        0.2105
     14 H          15.9294   67.6845   -4.7744 H       1  UNL1        0.2106
     15 O          15.5556   70.7836   -8.2781 O.2     1  UNL1       -0.2464
     16 O          19.4120   70.2853  -10.7515 O.2     1  UNL1       -0.2670
     17 N          17.5739   70.5162   -7.1335 N.ar    1  UNL1       -0.2551
     18 N          17.4768   70.5348   -9.5082 N.ar    1  UNL1       -0.2743
     19 C          16.7772   70.6231   -8.2974 C.ar    1  UNL1        0.3323
     20 C          18.9486   70.3376   -7.2425 C.ar    1  UNL1        0.0869
     21 C          19.6008   70.2559   -8.4043 C.ar    1  UNL1        0.0795
     22 C          18.8424   70.3571   -9.6669 C.ar    1  UNL1        0.2626
     23 H          16.9243   70.6084  -10.3581 H       1  UNL1        0.1734
     24 O          21.9005   71.8785   -3.0719 O.3     1  UNL1       -0.2703
     25 P          23.4400   71.9507   -2.5847 P.3     1  UNL1        0.2208
     26 O          23.9478   73.3709   -3.1688 O.3     1  UNL1       -0.4371
     27 O          24.2744   70.7741   -3.0032 O.2     1  UNL1       -0.5170
     28 O          23.3539   72.1728   -0.9887 O.3     1  UNL1       -0.2858
     29 O          24.6109   71.1485    0.7347 O.3     1  UNL1       -0.3226
     30 O          20.9656   71.8405    2.6089 O.3     1  UNL1       -0.3794
     31 O          21.0579   70.8910   -0.1472 O.3     1  UNL1       -0.3775
     32 O          23.4827   70.9946    3.3695 O.3     1  UNL1       -0.3792
     33 C          22.0652   72.0609    1.7299 C.3     1  UNL1        0.1718
     34 C          22.1839   70.9111    0.7238 C.3     1  UNL1        0.1968
     35 C          23.3483   72.1665    2.5586 C.3     1  UNL1        0.1723
     36 C          23.4616   71.0513   -0.1130 C.3     1  UNL1        0.2706
     37 C          24.5547   72.2604    1.6270 C.3     1  UNL1        0.1830
     38 H          20.9303   72.5895    3.2281 H       1  UNL1        0.2105
     39 H          21.1819   70.1551   -0.7700 H       1  UNL1        0.2106
     40 H          23.7427   70.2520    2.7985 H       1  UNL1        0.2106
     41 O          26.3131   70.9692    2.4900 O.co2   1  UNL1       -0.5466
     42 O          26.3950   73.2166    2.8634 O.co2   1  UNL1       -0.5466
     43 C          25.8398   72.2349    2.3917 C.2     1  UNL1        0.0799
@<TRIPOS>UNITY_ATOM_ATTR
41 1
charge -1
@<TRIPOS>BOND
     1     1     4    1
     2     1    24    1
     3     1     2    1
     4     1     3    2
     5    25    28    1
     6    25    24    1
     7    25    26    1
     8    25    27    2
     9     6    11    1
    10     6    12    1
    11    29    36    1
    12    29    37    1
    13     7     9    1
    14     7    13    1
    15     8    10    1
    16     8    14    1
    17     4     5    1
    18    28    36    1
    19    30    33    1
    20    30    38    1
    21    31    34    1
    22    31    39    1
    23    32    35    1
    24    32    40    1
    25    41    43   ar
    26    15    19    2
    27    42    43   ar
    28    16    22    2
    29    17    12    1
    30    17    19   ar
    31    17    20   ar
    32    18    19   ar
    33    18    22   ar
    34    18    23    1
    35     9    10    1
    36     9    11    1
    37    10    12    1
    38    11     5    1
    39    33    34    1
    40    33    35    1
    41    34    36    1
    42    35    37    1
    43    37    43    1
    44    20    21   ar
    45    21    22   ar
@<TRIPOS>MOLECULE
UDP-glaA
 43 45 0 0 0
SMALL
GASTEIGER

@<TRIPOS>ATOM
      1 P          22.5739   71.4954   -2.9468 P.3     1  UNL1        0.2189
      2 O          22.3863   73.0827   -2.6959 O.3     1  UNL1       -0.4371
      3 O          23.9687   71.0714   -3.3028 O.2     1  UNL1       -0.5170
      4 O          21.4309   71.1347   -4.0326 O.3     1  UNL1       -0.3112
      5 C          20.5453   70.0637   -3.7536 C.3     1  UNL1        0.1811
      6 O          18.7720   71.3515   -4.7390 O.3     1  UNL1       -0.3308
      7 O          16.9789   70.1091   -2.6818 O.3     1  UNL1       -0.3794
      8 O          16.4248   68.6468   -4.9157 O.3     1  UNL1       -0.3779
      9 C          18.0853   69.5372   -3.3792 C.3     1  UNL1        0.1713
     10 C          17.7039   69.2377   -4.8136 C.3     1  UNL1        0.1895
     11 C          19.1431   70.6196   -3.5501 C.3     1  UNL1        0.1764
     12 C          17.7630   70.6158   -5.4504 C.3     1  UNL1        0.2383
     13 H          17.2811   70.3196   -1.7818 H       1  UNL1        0.2105
     14 H          16.4388   67.8265   -4.3932 H       1  UNL1        0.2106
     15 O          15.9244   70.1750   -7.5481 O.2     1  UNL1       -0.2464
     16 O          19.2325   70.4302  -10.7465 O.2     1  UNL1       -0.2670
     17 N          18.1162   70.5627   -6.8402 N.ar    1  UNL1       -0.2551
     18 N          17.5730   70.3018   -9.1393 N.ar    1  UNL1       -0.2743
     19 C          17.1168   70.3349   -7.8150 C.ar    1  UNL1        0.3323
     20 C          19.4409   70.7353   -7.2259 C.ar    1  UNL1        0.0869
     21 C          19.8599   70.7015   -8.4928 C.ar    1  UNL1        0.0795
     22 C          18.8797   70.4676   -9.5717 C.ar    1  UNL1        0.2626
     23 H          16.8720   70.1388   -9.8570 H       1  UNL1        0.1734
     24 O          21.9987   70.8427   -1.5836 O.3     1  UNL1       -0.2703
     25 P          21.7808   71.4781   -0.1135 P.3     1  UNL1        0.2208
     26 O          21.6414   70.1765    0.8364 O.3     1  UNL1       -0.4371
     27 O          20.6297   72.4385   -0.0221 O.2     1  UNL1       -0.5170
     28 O          23.2123   72.1146    0.2732 O.3     1  UNL1       -0.2858
     29 O          22.8536   74.3665    0.9055 O.3     1  UNL1       -0.3226
     30 O          20.2394   72.3302    3.4152 O.3     1  UNL1       -0.3794
     31 O          22.9076   71.2778    2.8865 O.3     1  UNL1       -0.3775
     32 O          20.7531   74.9658    2.7675 O.3     1  UNL1       -0.3792
     33 C          20.9884   72.6207    2.2384 C.3     1  UNL1        0.1718
     34 C          22.4905   72.5944    2.5408 C.3     1  UNL1        0.1968
     35 C          20.5822   74.0036    1.7216 C.3     1  UNL1        0.1723
     36 C          23.2974   73.0726    1.3273 C.3     1  UNL1        0.2706
     37 C          21.4735   74.3938    0.5446 C.3     1  UNL1        0.1830
     38 H          19.2969   72.3601    3.1779 H       1  UNL1        0.2105
     39 H          23.8636   71.3088    3.0594 H       1  UNL1        0.2106
     40 H          21.7042   75.1308    2.8832 H       1  UNL1        0.2106
     41 O          21.9324   76.6799    0.8029 O.co2   1  UNL1       -0.5466
     42 O          20.4227   76.0991   -0.8035 O.co2   1  UNL1       -0.5466
     43 C          21.1986   75.7918    0.0898 C.2     1  UNL1        0.0799
@<TRIPOS>UNITY_ATOM_ATTR
41 1
charge -1
@<TRIPOS>BOND
     1     1     4    1
     2     1    24    1
     3     1     2    1
     4     1     3    2
     5    25    28    1
     6    25    24    1
     7    25    26    1
     8    25    27    2
     9     6    11    1
    10     6    12    1
    11    29    36    1
    12    29    37    1
    13     7     9    1
    14     7    13    1
    15     8    10    1
    16     8    14    1
    17     4     5    1
    18    28    36    1
    19    30    33    1
    20    30    38    1
    21    31    34    1
    22    31    39    1
    23    32    35    1
    24    32    40    1
    25    41    43   ar
    26    15    19    2
    27    42    43   ar
    28    16    22    2
    29    17    12    1
    30    17    19   ar
    31    17    20   ar
    32    18    19   ar
    33    18    22   ar
    34    18    23    1
    35     9    10    1
    36     9    11    1
    37    10    12    1
    38    11     5    1
    39    33    34    1
    40    33    35    1
    41    34    36    1
    42    35    37    1
    43    37    43    1
    44    20    21   ar
    45    21    22   ar
@<TRIPOS>MOLECULE
UDP-glaA
 43 45 0 0 0
SMALL
GASTEIGER

@<TRIPOS>ATOM
      1 P          20.3522   71.0159   -3.0239 P.3     1  UNL1        0.2189
      2 O          20.9237   69.5998   -3.5581 O.3     1  UNL1       -0.4371
      3 O          19.7471   70.9769   -1.6511 O.2     1  UNL1       -0.5170
      4 O          19.3720   71.5131   -4.2103 O.3     1  UNL1       -0.3112
      5 C          18.4505   72.5546   -3.9358 C.3     1  UNL1        0.1811
      6 O          16.7162   72.0254   -5.5127 O.3     1  UNL1       -0.3308
      7 O          15.5001   70.3630   -3.3335 O.3     1  UNL1       -0.3794
      8 O          16.7347   68.4946   -4.8892 O.3     1  UNL1       -0.3779
      9 C          16.8767   70.5779   -3.6441 C.3     1  UNL1        0.1713
     10 C          17.2611   69.8055   -4.8884 C.3     1  UNL1        0.1895
     11 C          17.0348   72.0214   -4.1036 C.3     1  UNL1        0.1764
     12 C          16.6748   70.6708   -5.9909 C.3     1  UNL1        0.2383
     13 H          15.2904   70.9066   -2.5549 H       1  UNL1        0.2105
     14 H          17.0715   68.0435   -4.0960 H       1  UNL1        0.2106
     15 O          15.5314   70.7578   -8.5717 O.2     1  UNL1       -0.2464
     16 O          19.6432   70.3250  -10.6074 O.2     1  UNL1       -0.2670
     17 N          17.4228   70.5837   -7.2125 N.ar    1  UNL1       -0.2551
     18 N          17.5796   70.5417   -9.5837 N.ar    1  UNL1       -0.2743
     19 C          16.7523   70.6366   -8.4568 C.ar    1  UNL1        0.3323
     20 C          18.8059   70.4471   -7.1701 C.ar    1  UNL1        0.0869
     21 C          19.5807   70.3585   -8.2534 C.ar    1  UNL1        0.0795
     22 C          18.9591   70.4046   -9.5917 C.ar    1  UNL1        0.2626
     23 H          17.1192   70.5769  -10.4891 H       1  UNL1        0.1734
     24 O          21.6274   71.9996   -3.1702 O.3     1  UNL1       -0.2703
     25 P          22.9788   72.1214   -2.2919 P.3     1  UNL1        0.2208
     26 O          23.6458   73.4949   -2.8256 O.3     1  UNL1       -0.4371
     27 O          23.8784   70.9217   -2.3762 O.2     1  UNL1       -0.5170
     28 O          22.4678   72.4680   -0.8010 O.3     1  UNL1       -0.2858
     29 O          24.0192   72.9288    0.9253 O.3     1  UNL1       -0.3226
     30 O          20.5759   72.0184    3.0688 O.3     1  UNL1       -0.3794
     31 O          21.3040   70.4696    0.7072 O.3     1  UNL1       -0.3775
     32 O          23.0883   73.0147    3.6391 O.3     1  UNL1       -0.3792
     33 C          21.3786   72.5230    2.0051 C.3     1  UNL1        0.1718
     34 C          22.1776   71.3890    1.3541 C.3     1  UNL1        0.1968
     35 C          22.3326   73.5822    2.5641 C.3     1  UNL1        0.1723
     36 C          23.1702   71.9448    0.3255 C.3     1  UNL1        0.2706
     37 C          23.2974   74.0328    1.4694 C.3     1  UNL1        0.1830
     38 H          20.0911   72.7692    3.4521 H       1  UNL1        0.2105
     39 H          21.8537   69.7772    0.3032 H       1  UNL1        0.2106
     40 H          23.7508   72.4095    3.2652 H       1  UNL1        0.2106
     41 O          25.5664   74.6197    1.5732 O.co2   1  UNL1       -0.5466
     42 O          24.1012   75.9304    2.7274 O.co2   1  UNL1       -0.5466
     43 C          24.3312   74.9722    2.0039 C.2     1  UNL1        0.0799
@<TRIPOS>UNITY_ATOM_ATTR
41 1
charge -1
@<TRIPOS>BOND
     1     1     4    1
     2     1    24    1
     3     1     2    1
     4     1     3    2
     5    25    28    1
     6    25    24    1
     7    25    26    1
     8    25    27    2
     9     6    11    1
    10     6    12    1
    11    29    36    1
    12    29    37    1
    13     7     9    1
    14     7    13    1
    15     8    10    1
    16     8    14    1
    17     4     5    1
    18    28    36    1
    19    30    33    1
    20    30    38    1
    21    31    34    1
    22    31    39    1
    23    32    35    1
    24    32    40    1
    25    41    43   ar
    26    15    19    2
    27    42    43   ar
    28    16    22    2
    29    17    12    1
    30    17    19   ar
    31    17    20   ar
    32    18    19   ar
    33    18    22   ar
    34    18    23    1
    35     9    10    1
    36     9    11    1
    37    10    12    1
    38    11     5    1
    39    33    34    1
    40    33    35    1
    41    34    36    1
    42    35    37    1
    43    37    43    1
    44    20    21   ar
    45    21    22   ar
@<TRIPOS>MOLECULE
UDP-glaA
 43 45 0 0 0
SMALL
GASTEIGER

@<TRIPOS>ATOM
      1 P          23.3907   71.9853   -3.3793 P.3     1  UNL1        0.2189
      2 O          24.1397   72.9729   -4.4190 O.3     1  UNL1       -0.4371
      3 O          24.1574   70.7467   -3.0186 O.2     1  UNL1       -0.5170
      4 O          21.9387   71.7431   -4.0491 O.3     1  UNL1       -0.3112
      5 C          21.1947   70.6013   -3.6590 C.3     1  UNL1        0.1811
      6 O          19.1991   71.6358   -4.5085 O.3     1  UNL1       -0.3308
      7 O          17.7779   70.3596   -2.1971 O.3     1  UNL1       -0.3794
      8 O          17.1499   68.7033   -4.2703 O.3     1  UNL1       -0.3779
      9 C          18.8590   69.8565   -2.9819 C.3     1  UNL1        0.1713
     10 C          18.3619   69.4252   -4.3455 C.3     1  UNL1        0.1895
     11 C          19.7705   71.0258   -3.3302 C.3     1  UNL1        0.1764
     12 C          18.2051   70.7566   -5.0601 C.3     1  UNL1        0.2383
     13 H          18.1495   70.6590   -1.3499 H       1  UNL1        0.2105
     14 H          17.3071   67.9252   -3.7082 H       1  UNL1        0.2106
     15 O          16.2292   69.9356   -6.9031 O.2     1  UNL1       -0.2464
     16 O          19.1152   70.3699  -10.4698 O.2     1  UNL1       -0.2670
     17 N          18.4125   70.6468   -6.4758 N.ar    1  UNL1       -0.2551
     18 N          17.6677   70.1519   -8.6779 N.ar    1  UNL1       -0.2743
     19 C          17.3545   70.2242   -7.3142 C.ar    1  UNL1        0.3323
     20 C          19.6539   70.9559   -7.0205 C.ar    1  UNL1        0.0869
     21 C          19.9367   70.8823   -8.3230 C.ar    1  UNL1        0.0795
     22 C          18.8873   70.4486   -9.2665 C.ar    1  UNL1        0.2626
     23 H          16.9224   69.8498   -9.2995 H       1  UNL1        0.1734
     24 O          23.0572   72.9583   -2.1314 O.3     1  UNL1       -0.2703
     25 P          22.4103   74.4389   -2.0847 P.3     1  UNL1        0.2208
     26 O          21.0639   74.2835   -2.9674 O.3     1  UNL1       -0.4371
     27 O          23.3333   75.5292   -2.5484 O.2     1  UNL1       -0.5170
     28 O          21.8869   74.6088   -0.5678 O.3     1  UNL1       -0.2858
     29 O          21.2501   72.4719    0.2244 O.3     1  UNL1       -0.3226
     30 O          20.4093   74.8986    3.4929 O.3     1  UNL1       -0.3794
     31 O          19.7921   75.7924    0.7862 O.3     1  UNL1       -0.3775
     32 O          20.4769   72.1865    2.9738 O.3     1  UNL1       -0.3792
     33 C          21.0872   74.4330    2.3293 C.3     1  UNL1        0.1718
     34 C          20.1478   74.4546    1.1188 C.3     1  UNL1        0.1968
     35 C          21.5828   73.0066    2.5825 C.3     1  UNL1        0.1723
     36 C          20.8126   73.7964   -0.0965 C.3     1  UNL1        0.2706
     37 C          22.1867   72.4380    1.3002 C.3     1  UNL1        0.1830
     38 H          21.0395   74.8655    4.2326 H       1  UNL1        0.2105
     39 H          19.2065   75.7562    0.0112 H       1  UNL1        0.2106
     40 H          19.9302   72.0102    2.1894 H       1  UNL1        0.2106
     41 O          21.5542   70.1903    1.0734 O.co2   1  UNL1       -0.5466
     42 O          23.6420   70.6039    1.8900 O.co2   1  UNL1       -0.5466
     43 C          22.5668   71.0008    1.4648 C.2     1  UNL1        0.0799
@<TRIPOS>UNITY_ATOM_ATTR
41 1
charge -1
@<TRIPOS>BOND
     1     1     4    1
     2     1    24    1
     3     1     2    1
     4     1     3    2
     5    25    28    1
     6    25    24    1
     7    25    26    1
     8    25    27    2
     9     6    11    1
    10     6    12    1
    11    29    36    1
    12    29    37    1
    13     7     9    1
    14     7    13    1
    15     8    10    1
    16     8    14    1
    17     4     5    1
    18    28    36    1
    19    30    33    1
    20    30    38    1
    21    31    34    1
    22    31    39    1
    23    32    35    1
    24    32    40    1
    25    41    43   ar
    26    15    19    2
    27    42    43   ar
    28    16    22    2
    29    17    12    1
    30    17    19   ar
    31    17    20   ar
    32    18    19   ar
    33    18    22   ar
    34    18    23    1
    35     9    10    1
    36     9    11    1
    37    10    12    1
    38    11     5    1
    39    33    34    1
    40    33    35    1
    41    34    36    1
    42    35    37    1
    43    37    43    1
    44    20    21   ar
    45    21    22   ar
@<TRIPOS>MOLECULE
UDP-glaA
 43 45 0 0 0
SMALL
GASTEIGER

@<TRIPOS>ATOM
      1 P          23.3683   72.0481   -3.4351 P.3     1  UNL1        0.2189
      2 O          24.1323   72.9228   -4.5614 O.3     1  UNL1       -0.4371
      3 O          24.0899   70.8059   -3.0011 O.2     1  UNL1       -0.5170
      4 O          21.8906   71.8231   -4.0526 O.3     1  UNL1       -0.3112
      5 C          21.1630   70.6699   -3.6653 C.3     1  UNL1        0.1811
      6 O          19.1576   71.7241   -4.4662 O.3     1  UNL1       -0.3308
      7 O          17.7568   70.3634   -2.1907 O.3     1  UNL1       -0.3794
      8 O          17.1222   68.7762   -4.3152 O.3     1  UNL1       -0.3779
      9 C          18.8348   69.8921   -2.9991 C.3     1  UNL1        0.1713
     10 C          18.3306   69.5055   -4.3734 C.3     1  UNL1        0.1895
     11 C          19.7392   71.0767   -3.3130 C.3     1  UNL1        0.1764
     12 C          18.1636   70.8599   -5.0411 C.3     1  UNL1        0.2383
     13 H          18.1327   70.6353   -1.3361 H       1  UNL1        0.2105
     14 H          17.2862   67.9800   -3.7810 H       1  UNL1        0.2106
     15 O          16.0996   71.1062   -6.9527 O.2     1  UNL1       -0.2464
     16 O          19.0430   70.6093  -10.4639 O.2     1  UNL1       -0.2670
     17 N          18.3622   70.7993   -6.4610 N.ar    1  UNL1       -0.2551
     18 N          17.5666   70.8581   -8.6999 N.ar    1  UNL1       -0.2743
     19 C          17.2583   70.9336   -7.3352 C.ar    1  UNL1        0.3323
     20 C          19.6401   70.6085   -6.9747 C.ar    1  UNL1        0.0869
     21 C          19.9178   70.5392   -8.2785 C.ar    1  UNL1        0.0795
     22 C          18.8212   70.6691   -9.2584 C.ar    1  UNL1        0.2626
     23 H          16.7883   70.9514   -9.3469 H       1  UNL1        0.1734
     24 O          23.1090   73.1234   -2.2554 O.3     1  UNL1       -0.2703
     25 P          22.9268   72.9254   -0.6616 P.3     1  UNL1        0.2208
     26 O          21.3667   72.5250   -0.5134 O.3     1  UNL1       -0.4371
     27 O          23.3426   74.1132    0.1582 O.2     1  UNL1       -0.5170
     28 O          23.7307   71.5677   -0.3236 O.3     1  UNL1       -0.2858
     29 O          24.6769   72.0026    1.8012 O.3     1  UNL1       -0.3226
     30 O          20.6053   72.3045    2.5825 O.3     1  UNL1       -0.3794
     31 O          21.6269   70.2054    0.8343 O.3     1  UNL1       -0.3775
     32 O          22.9522   72.8159    3.9466 O.3     1  UNL1       -0.3792
     33 C          21.8239   72.4042    1.8508 C.3     1  UNL1        0.1718
     34 C          22.4502   71.0181    1.6641 C.3     1  UNL1        0.1968
     35 C          22.7876   73.3158    2.6155 C.3     1  UNL1        0.1723
     36 C          23.8423   71.1318    1.0305 C.3     1  UNL1        0.2706
     37 C          24.1478   73.3222    1.9213 C.3     1  UNL1        0.1830
     38 H          20.2465   73.2031    2.6786 H       1  UNL1        0.2105
     39 H          22.0672   69.3443    0.7374 H       1  UNL1        0.2106
     40 H          23.5081   72.0191    3.9108 H       1  UNL1        0.2106
     41 O          25.0425   73.8327    4.0290 O.co2   1  UNL1       -0.5466
     42 O          25.9818   74.8629    2.2253 O.co2   1  UNL1       -0.5466
     43 C          25.1586   74.0970    2.7053 C.2     1  UNL1        0.0799
@<TRIPOS>UNITY_ATOM_ATTR
41 1
charge -1
@<TRIPOS>BOND
     1     1     4    1
     2     1    24    1
     3     1     2    1
     4     1     3    2
     5    25    28    1
     6    25    24    1
     7    25    26    1
     8    25    27    2
     9     6    11    1
    10     6    12    1
    11    29    36    1
    12    29    37    1
    13     7     9    1
    14     7    13    1
    15     8    10    1
    16     8    14    1
    17     4     5    1
    18    28    36    1
    19    30    33    1
    20    30    38    1
    21    31    34    1
    22    31    39    1
    23    32    35    1
    24    32    40    1
    25    41    43   ar
    26    15    19    2
    27    42    43   ar
    28    16    22    2
    29    17    12    1
    30    17    19   ar
    31    17    20   ar
    32    18    19   ar
    33    18    22   ar
    34    18    23    1
    35     9    10    1
    36     9    11    1
    37    10    12    1
    38    11     5    1
    39    33    34    1
    40    33    35    1
    41    34    36    1
    42    35    37    1
    43    37    43    1
    44    20    21   ar
    45    21    22   ar
@<TRIPOS>MOLECULE
UDP-glaA
 43 45 0 0 0
SMALL
GASTEIGER

@<TRIPOS>ATOM
      1 P          22.9135   71.3866   -2.2820 P.3     1  UNL1        0.2189
      2 O          22.5395   72.9368   -2.5550 O.3     1  UNL1       -0.4371
      3 O          24.1393   70.8961   -2.9955 O.2     1  UNL1       -0.5170
      4 O          21.5439   70.5916   -2.6101 O.3     1  UNL1       -0.3112
      5 C          20.9009   70.8330   -3.8500 C.3     1  UNL1        0.1811
      6 O          18.9155   71.7922   -4.8053 O.3     1  UNL1       -0.3308
      7 O          17.4337   70.5302   -2.5243 O.3     1  UNL1       -0.3794
      8 O          16.9372   68.8102   -4.5812 O.3     1  UNL1       -0.3779
      9 C          18.5597   70.0394   -3.2517 C.3     1  UNL1        0.1713
     10 C          18.1315   69.5635   -4.6238 C.3     1  UNL1        0.1895
     11 C          19.4534   71.2253   -3.5902 C.3     1  UNL1        0.1764
     12 C          17.9692   70.8734   -5.3760 C.3     1  UNL1        0.2383
     13 H          17.7616   70.8590   -1.6699 H       1  UNL1        0.2105
     14 H          17.0916   68.0498   -3.9946 H       1  UNL1        0.2106
     15 O          16.0207   70.2421   -7.3203 O.2     1  UNL1       -0.2464
     16 O          19.1175   70.3736  -10.7308 O.2     1  UNL1       -0.2670
     17 N          18.2382   70.7370   -6.7789 N.ar    1  UNL1       -0.2551
     18 N          17.5642   70.3075   -9.0172 N.ar    1  UNL1       -0.2743
     19 C          17.1889   70.4167   -7.6717 C.ar    1  UNL1        0.3323
     20 C          19.5308   70.9200   -7.2578 C.ar    1  UNL1        0.0869
     21 C          19.8724   70.8128   -8.5437 C.ar    1  UNL1        0.0795
     22 C          18.8360   70.4800   -9.5411 C.ar    1  UNL1        0.2626
     23 H          16.8261   70.0773   -9.6771 H       1  UNL1        0.1734
     24 O          22.9985   71.3131   -0.6688 O.3     1  UNL1       -0.2703
     25 P          21.8541   71.4717    0.4616 P.3     1  UNL1        0.2208
     26 O          21.6280   69.9550    0.9761 O.3     1  UNL1       -0.4371
     27 O          20.6061   72.1565   -0.0172 O.2     1  UNL1       -0.5170
     28 O          22.5924   72.2137    1.6897 O.3     1  UNL1       -0.2858
     29 O          22.0998   74.0023    3.1586 O.3     1  UNL1       -0.3226
     30 O          26.0691   74.7500    2.1763 O.3     1  UNL1       -0.3794
     31 O          24.1821   73.8554    0.1404 O.3     1  UNL1       -0.3775
     32 O          24.2223   75.7577    3.9662 O.3     1  UNL1       -0.3792
     33 C          24.8953   73.9936    2.4596 C.3     1  UNL1        0.1718
     34 C          23.7986   74.3051    1.4356 C.3     1  UNL1        0.1968
     35 C          24.4099   74.3420    3.8694 C.3     1  UNL1        0.1723
     36 C          22.4795   73.6293    1.8298 C.3     1  UNL1        0.2706
     37 C          23.0754   73.6499    4.1383 C.3     1  UNL1        0.1830
     38 H          26.7336   74.5234    2.8490 H       1  UNL1        0.2105
     39 H          23.4553   74.0651   -0.4701 H       1  UNL1        0.2106
     40 H          23.4179   75.9970    3.4755 H       1  UNL1        0.2106
     41 O          22.7086   73.1081    6.3912 O.co2   1  UNL1       -0.5466
     42 O          21.9210   75.1208    5.6660 O.co2   1  UNL1       -0.5466
     43 C          22.4994   74.0647    5.4548 C.2     1  UNL1        0.0799
@<TRIPOS>UNITY_ATOM_ATTR
41 1
charge -1
@<TRIPOS>BOND
     1     1     4    1
     2     1    24    1
     3     1     2    1
     4     1     3    2
     5    25    28    1
     6    25    24    1
     7    25    26    1
     8    25    27    2
     9     6    11    1
    10     6    12    1
    11    29    36    1
    12    29    37    1
    13     7     9    1
    14     7    13    1
    15     8    10    1
    16     8    14    1
    17     4     5    1
    18    28    36    1
    19    30    33    1
    20    30    38    1
    21    31    34    1
    22    31    39    1
    23    32    35    1
    24    32    40    1
    25    41    43   ar
    26    15    19    2
    27    42    43   ar
    28    16    22    2
    29    17    12    1
    30    17    19   ar
    31    17    20   ar
    32    18    19   ar
    33    18    22   ar
    34    18    23    1
    35     9    10    1
    36     9    11    1
    37    10    12    1
    38    11     5    1
    39    33    34    1
    40    33    35    1
    41    34    36    1
    42    35    37    1
    43    37    43    1
    44    20    21   ar
    45    21    22   ar
@<TRIPOS>MOLECULE
UDP-glaA
 43 45 0 0 0
SMALL
GASTEIGER

@<TRIPOS>ATOM
      1 P          23.3448   72.0827   -3.4775 P.3     1  UNL1        0.2189
      2 O          24.0944   73.0160   -4.5658 O.3     1  UNL1       -0.4371
      3 O          24.1011   70.8519   -3.0711 O.2     1  UNL1       -0.5170
      4 O          21.8835   71.8289   -4.1223 O.3     1  UNL1       -0.3112
      5 C          21.1508   70.6871   -3.7115 C.3     1  UNL1        0.1811
      6 O          19.1475   71.6940   -4.5758 O.3     1  UNL1       -0.3308
      7 O          17.7345   70.4343   -2.2503 O.3     1  UNL1       -0.3794
      8 O          17.1230   68.7472   -4.3035 O.3     1  UNL1       -0.3779
      9 C          18.8207   69.9308   -3.0277 C.3     1  UNL1        0.1713
     10 C          18.3288   69.4784   -4.3863 C.3     1  UNL1        0.1895
     11 C          19.7227   71.1034   -3.3894 C.3     1  UNL1        0.1764
     12 C          18.1616   70.7996   -5.1175 C.3     1  UNL1        0.2383
     13 H          18.1026   70.7473   -1.4065 H       1  UNL1        0.2105
     14 H          17.2862   67.9775   -3.7316 H       1  UNL1        0.2106
     15 O          16.2141   69.8798   -6.9442 O.2     1  UNL1       -0.2464
     16 O          19.0801   70.3568  -10.5215 O.2     1  UNL1       -0.2670
     17 N          18.3715   70.6740   -6.5315 N.ar    1  UNL1       -0.2551
     18 N          17.6427   70.1175   -8.7243 N.ar    1  UNL1       -0.2743
     19 C          17.3282   70.2010   -7.3614 C.ar    1  UNL1        0.3323
     20 C          19.6009   71.0175   -7.0830 C.ar    1  UNL1        0.0869
     21 C          19.8849   70.9326   -8.3845 C.ar    1  UNL1        0.0795
     22 C          18.8506   70.4471   -9.3193 C.ar    1  UNL1        0.2626
     23 H          16.9079   69.7794   -9.3398 H       1  UNL1        0.1734
     24 O          23.0347   73.1122   -2.2695 O.3     1  UNL1       -0.2703
     25 P          23.8106   74.4458   -1.7876 P.3     1  UNL1        0.2208
     26 O          22.6150   75.5141   -1.5746 O.3     1  UNL1       -0.4371
     27 O          24.8907   74.9030   -2.7257 O.2     1  UNL1       -0.5170
     28 O          24.3235   74.1041   -0.2963 O.3     1  UNL1       -0.2858
     29 O          22.5011   73.6679    1.1487 O.3     1  UNL1       -0.3226
     30 O          25.7313   73.5563    3.7626 O.3     1  UNL1       -0.3794
     31 O          25.5927   75.5769    1.6641 O.3     1  UNL1       -0.3775
     32 O          23.0348   72.9693    3.8811 O.3     1  UNL1       -0.3792
     33 C          25.0047   73.3907    2.5482 C.3     1  UNL1        0.1718
     34 C          24.4998   74.7449    2.0386 C.3     1  UNL1        0.1968
     35 C          23.8217   72.4526    2.8028 C.3     1  UNL1        0.1723
     36 C          23.5744   74.5596    0.8296 C.3     1  UNL1        0.2706
     37 C          22.9498   72.3748    1.5515 C.3     1  UNL1        0.1830
     38 H          26.0288   72.6759    4.0489 H       1  UNL1        0.2105
     39 H          25.2248   76.4163    1.3402 H       1  UNL1        0.2106
     40 H          22.5382   73.7406    3.5591 H       1  UNL1        0.2106
     41 O          21.8118   70.3507    1.2171 O.co2   1  UNL1       -0.5466
     42 O          20.7412   71.9552    2.4322 O.co2   1  UNL1       -0.5466
     43 C          21.7121   71.5716    1.7960 C.2     1  UNL1        0.0799
@<TRIPOS>UNITY_ATOM_ATTR
41 1
charge -1
@<TRIPOS>BOND
     1     1     4    1
     2     1    24    1
     3     1     2    1
     4     1     3    2
     5    25    28    1
     6    25    24    1
     7    25    26    1
     8    25    27    2
     9     6    11    1
    10     6    12    1
    11    29    36    1
    12    29    37    1
    13     7     9    1
    14     7    13    1
    15     8    10    1
    16     8    14    1
    17     4     5    1
    18    28    36    1
    19    30    33    1
    20    30    38    1
    21    31    34    1
    22    31    39    1
    23    32    35    1
    24    32    40    1
    25    41    43   ar
    26    15    19    2
    27    42    43   ar
    28    16    22    2
    29    17    12    1
    30    17    19   ar
    31    17    20   ar
    32    18    19   ar
    33    18    22   ar
    34    18    23    1
    35     9    10    1
    36     9    11    1
    37    10    12    1
    38    11     5    1
    39    33    34    1
    40    33    35    1
    41    34    36    1
    42    35    37    1
    43    37    43    1
    44    20    21   ar
    45    21    22   ar
@<TRIPOS>MOLECULE
UDP-glaA
 43 45 0 0 0
SMALL
GASTEIGER

@<TRIPOS>ATOM
      1 P          22.9010   71.4023   -2.3850 P.3     1  UNL1        0.2189
      2 O          22.4385   72.8835   -2.8426 O.3     1  UNL1       -0.4371
      3 O          24.1233   70.8779   -3.0801 O.2     1  UNL1       -0.5170
      4 O          21.5627   70.5088   -2.5466 O.3     1  UNL1       -0.3112
      5 C          20.8580   70.5604   -3.7753 C.3     1  UNL1        0.1811
      6 O          18.9171   71.6343   -4.6996 O.3     1  UNL1       -0.3308
      7 O          17.3722   70.3323   -2.4839 O.3     1  UNL1       -0.3794
      8 O          16.8267   68.7224   -4.6162 O.3     1  UNL1       -0.3779
      9 C          18.4842   69.8310   -3.2254 C.3     1  UNL1        0.1713
     10 C          18.0487   69.4311   -4.6193 C.3     1  UNL1        0.1895
     11 C          19.4243   70.9957   -3.5071 C.3     1  UNL1        0.1764
     12 C          17.9412   70.7774   -5.3150 C.3     1  UNL1        0.2383
     13 H          17.7059   70.6114   -1.6143 H       1  UNL1        0.2105
     14 H          16.9480   67.9322   -4.0621 H       1  UNL1        0.2106
     15 O          16.0158   70.1393   -7.2799 O.2     1  UNL1       -0.2464
     16 O          19.1081   70.4739  -10.6805 O.2     1  UNL1       -0.2670
     17 N          18.2154   70.6914   -6.7210 N.ar    1  UNL1       -0.2551
     18 N          17.5570   70.3058   -8.9719 N.ar    1  UNL1       -0.2743
     19 C          17.1777   70.3629   -7.6243 C.ar    1  UNL1        0.3323
     20 C          19.5013   70.9311   -7.1924 C.ar    1  UNL1        0.0869
     21 C          19.8470   70.8733   -8.4804 C.ar    1  UNL1        0.0795
     22 C          18.8227   70.5358   -9.4886 C.ar    1  UNL1        0.2626
     23 H          16.8273   70.0708   -9.6393 H       1  UNL1        0.1734
     24 O          23.0488   71.5481   -0.7812 O.3     1  UNL1       -0.2703
     25 P          21.9334   71.5736    0.3884 P.3     1  UNL1        0.2208
     26 O          22.8100   71.7743    1.7328 O.3     1  UNL1       -0.4371
     27 O          21.0343   70.3707    0.4083 O.2     1  UNL1       -0.5170
     28 O          21.1639   72.9779    0.1891 O.3     1  UNL1       -0.2858
     29 O          22.6253   74.7692    0.6940 O.3     1  UNL1       -0.3226
     30 O          19.0603   76.7522   -0.1045 O.3     1  UNL1       -0.3794
     31 O          19.0646   74.2722    1.4303 O.3     1  UNL1       -0.3775
     32 O          21.6925   77.4607    0.3418 O.3     1  UNL1       -0.3792
     33 C          20.0731   75.7554   -0.2097 C.3     1  UNL1        0.1718
     34 C          20.2378   75.0181    1.1235 C.3     1  UNL1        0.1968
     35 C          21.3911   76.4282   -0.6027 C.3     1  UNL1        0.1723
     36 C          21.4381   74.0646    1.0722 C.3     1  UNL1        0.2706
     37 C          22.5190   75.3988   -0.5819 C.3     1  UNL1        0.1830
     38 H          18.9923   77.1937   -0.9682 H       1  UNL1        0.2105
     39 H          19.2191   73.8167    2.2750 H       1  UNL1        0.2106
     40 H          21.9861   77.0454    1.1703 H       1  UNL1        0.2106
     41 O          24.8361   75.3438   -0.2191 O.co2   1  UNL1       -0.5466
     42 O          24.0263   77.0452   -1.5022 O.co2   1  UNL1       -0.5466
     43 C          23.8477   76.0377   -0.8333 C.2     1  UNL1        0.0799
@<TRIPOS>UNITY_ATOM_ATTR
41 1
charge -1
@<TRIPOS>BOND
     1     1     4    1
     2     1    24    1
     3     1     2    1
     4     1     3    2
     5    25    28    1
     6    25    24    1
     7    25    26    1
     8    25    27    2
     9     6    11    1
    10     6    12    1
    11    29    36    1
    12    29    37    1
    13     7     9    1
    14     7    13    1
    15     8    10    1
    16     8    14    1
    17     4     5    1
    18    28    36    1
    19    30    33    1
    20    30    38    1
    21    31    34    1
    22    31    39    1
    23    32    35    1
    24    32    40    1
    25    41    43   ar
    26    15    19    2
    27    42    43   ar
    28    16    22    2
    29    17    12    1
    30    17    19   ar
    31    17    20   ar
    32    18    19   ar
    33    18    22   ar
    34    18    23    1
    35     9    10    1
    36     9    11    1
    37    10    12    1
    38    11     5    1
    39    33    34    1
    40    33    35    1
    41    34    36    1
    42    35    37    1
    43    37    43    1
    44    20    21   ar
    45    21    22   ar
@<TRIPOS>MOLECULE
UDP-glaA
 43 45 0 0 0
SMALL
GASTEIGER

@<TRIPOS>ATOM
      1 P          21.0188   72.6940   -3.9957 P.3     1  UNL1        0.2189
      2 O          20.8331   74.2319   -3.5291 O.3     1  UNL1       -0.4371
      3 O          22.1495   72.4551   -4.9531 O.2     1  UNL1       -0.5170
      4 O          19.5504   72.2661   -4.5213 O.3     1  UNL1       -0.3112
      5 C          18.4862   73.1928   -4.3869 C.3     1  UNL1        0.1811
      6 O          16.7499   72.1712   -5.6969 O.3     1  UNL1       -0.3308
      7 O          15.9893   70.6982   -3.1983 O.3     1  UNL1       -0.3794
      8 O          17.3948   68.8220   -4.5912 O.3     1  UNL1       -0.3779
      9 C          17.2848   71.0689   -3.6692 C.3     1  UNL1        0.1713
     10 C          17.6971   70.1819   -4.8250 C.3     1  UNL1        0.1895
     11 C          17.1689   72.4318   -4.3390 C.3     1  UNL1        0.1764
     12 C          16.8962   70.7689   -5.9748 C.3     1  UNL1        0.2383
     13 H          15.7517   71.3167   -2.4865 H       1  UNL1        0.2105
     14 H          17.8593   68.5543   -3.7795 H       1  UNL1        0.2106
     15 O          15.5672   70.6623   -8.4643 O.2     1  UNL1       -0.2464
     16 O          19.5284   70.1527  -10.7638 O.2     1  UNL1       -0.2670
     17 N          17.5553   70.6096   -7.2396 N.ar    1  UNL1       -0.2551
     18 N          17.5405   70.4081   -9.6077 N.ar    1  UNL1       -0.2743
     19 C          16.7954   70.5674   -8.4319 C.ar    1  UNL1        0.3323
     20 C          18.9402   70.4968   -7.2901 C.ar    1  UNL1        0.0869
     21 C          19.6361   70.3459   -8.4192 C.ar    1  UNL1        0.0795
     22 C          18.9182   70.2912   -9.7081 C.ar    1  UNL1        0.2626
     23 H          17.0150   70.3744  -10.4771 H       1  UNL1        0.1734
     24 O          21.1467   71.9023   -2.5914 O.3     1  UNL1       -0.2703
     25 P          20.2950   72.0257   -1.2232 P.3     1  UNL1        0.2208
     26 O          19.9135   70.4909   -0.8839 O.3     1  UNL1       -0.4371
     27 O          19.1163   72.9522   -1.3129 O.2     1  UNL1       -0.5170
     28 O          21.3804   72.4343   -0.1013 O.3     1  UNL1       -0.2858
     29 O          23.6868   72.9249   -0.2991 O.3     1  UNL1       -0.3226
     30 O          23.4970   71.1254    3.4432 O.3     1  UNL1       -0.3794
     31 O          21.9424   70.0716    1.2119 O.3     1  UNL1       -0.3775
     32 O          25.3997   72.4689    1.9585 O.3     1  UNL1       -0.3792
     33 C          23.0796   71.9071    2.3274 C.3     1  UNL1        0.1718
     34 C          22.9809   71.0353    1.0711 C.3     1  UNL1        0.1968
     35 C          24.0926   73.0335    2.1052 C.3     1  UNL1        0.1723
     36 C          22.7003   71.8962   -0.1669 C.3     1  UNL1        0.2706
     37 C          23.7407   73.7960    0.8297 C.3     1  UNL1        0.1830
     38 H          23.5480   71.7170    4.2133 H       1  UNL1        0.2105
     39 H          21.9117   69.5514    0.3914 H       1  UNL1        0.2106
     40 H          25.4587   72.0497    1.0833 H       1  UNL1        0.2106
     41 O          24.7781   75.0967   -0.8243 O.co2   1  UNL1       -0.5466
     42 O          25.5225   75.3513    1.3154 O.co2   1  UNL1       -0.5466
     43 C          24.7772   74.8234    0.5027 C.2     1  UNL1        0.0799
@<TRIPOS>UNITY_ATOM_ATTR
41 1
charge -1
@<TRIPOS>BOND
     1     1     4    1
     2     1    24    1
     3     1     2    1
     4     1     3    2
     5    25    28    1
     6    25    24    1
     7    25    26    1
     8    25    27    2
     9     6    11    1
    10     6    12    1
    11    29    36    1
    12    29    37    1
    13     7     9    1
    14     7    13    1
    15     8    10    1
    16     8    14    1
    17     4     5    1
    18    28    36    1
    19    30    33    1
    20    30    38    1
    21    31    34    1
    22    31    39    1
    23    32    35    1
    24    32    40    1
    25    41    43   ar
    26    15    19    2
    27    42    43   ar
    28    16    22    2
    29    17    12    1
    30    17    19   ar
    31    17    20   ar
    32    18    19   ar
    33    18    22   ar
    34    18    23    1
    35     9    10    1
    36     9    11    1
    37    10    12    1
    38    11     5    1
    39    33    34    1
    40    33    35    1
    41    34    36    1
    42    35    37    1
    43    37    43    1
    44    20    21   ar
    45    21    22   ar
@<TRIPOS>MOLECULE
UDP-glaA
 43 45 0 0 0
SMALL
GASTEIGER

@<TRIPOS>ATOM
      1 P          22.2223   71.2846    0.0875 P.3     1  UNL1        0.2189
      2 O          21.3831   70.1918    0.9354 O.3     1  UNL1       -0.4371
      3 O          23.7091   71.0803    0.0881 O.2     1  UNL1       -0.5170
      4 O          21.7077   72.7049    0.6649 O.3     1  UNL1       -0.3112
      5 C          22.3079   73.2145    1.8436 C.3     1  UNL1        0.1811
      6 O          22.3249   72.5773    4.1605 O.3     1  UNL1       -0.3308
      7 O          19.4310   73.3614    4.2042 O.3     1  UNL1       -0.3794
      8 O          20.6491   75.5157    5.3492 O.3     1  UNL1       -0.3779
      9 C          20.5166   73.9536    3.4910 C.3     1  UNL1        0.1713
     10 C          21.3990   74.7409    4.4367 C.3     1  UNL1        0.1895
     11 C          21.4485   72.8360    3.0415 C.3     1  UNL1        0.1764
     12 C          22.1918   73.6394    5.1194 C.3     1  UNL1        0.2383
     13 H          18.9172   72.8370    3.5667 H       1  UNL1        0.2105
     14 H          20.0898   76.1191    4.8304 H       1  UNL1        0.2106
     15 O          23.0595   73.8225    7.8007 O.2     1  UNL1       -0.2464
     16 O          27.2319   75.3192    6.5400 O.2     1  UNL1       -0.2670
     17 N          23.4996   74.0732    5.5205 N.ar    1  UNL1       -0.2551
     18 N          25.1364   74.5682    7.1711 N.ar    1  UNL1       -0.2743
     19 C          23.8348   74.1303    6.8935 C.ar    1  UNL1        0.3323
     20 C          24.4347   74.4369    4.5580 C.ar    1  UNL1        0.0869
     21 C          25.6720   74.8519    4.8387 C.ar    1  UNL1        0.0795
     22 C          26.1015   74.9409    6.2484 C.ar    1  UNL1        0.2626
     23 H          25.3993   74.6177    8.1517 H       1  UNL1        0.1734
     24 O          21.5336   71.2158   -1.3741 O.3     1  UNL1       -0.2703
     25 P          19.9935   71.3968   -1.8300 P.3     1  UNL1        0.2208
     26 O          19.5346   72.7435   -1.0606 O.3     1  UNL1       -0.4371
     27 O          19.1261   70.2012   -1.5582 O.2     1  UNL1       -0.5170
     28 O          20.0745   71.8221   -3.3845 O.3     1  UNL1       -0.2858
     29 O          19.3549   70.0009   -4.7130 O.3     1  UNL1       -0.3226
     30 O          20.3939   72.8186   -7.5871 O.3     1  UNL1       -0.3794
     31 O          22.0468   72.4444   -5.2136 O.3     1  UNL1       -0.3775
     32 O          19.1464   70.3543   -7.5538 O.3     1  UNL1       -0.3792
     33 C          19.9033   72.3074   -6.3508 C.3     1  UNL1        0.1718
     34 C          21.0104   71.5516   -5.6081 C.3     1  UNL1        0.1968
     35 C          18.7276   71.3685   -6.6347 C.3     1  UNL1        0.1723
     36 C          20.4501   70.8534   -4.3627 C.3     1  UNL1        0.2706
     37 C          18.2793   70.7006   -5.3367 C.3     1  UNL1        0.1830
     38 H          19.6608   73.2858   -8.0229 H       1  UNL1        0.2105
     39 H          22.7179   71.9240   -4.7406 H       1  UNL1        0.2106
     40 H          19.7190   69.7266   -7.0813 H       1  UNL1        0.2106
     41 O          16.6209   69.8891   -6.7841 O.co2   1  UNL1       -0.5466
     42 O          16.9243   68.7696   -4.8215 O.co2   1  UNL1       -0.5466
     43 C          17.2175   69.6772   -5.5862 C.2     1  UNL1        0.0799
@<TRIPOS>UNITY_ATOM_ATTR
41 1
charge -1
@<TRIPOS>BOND
     1     1     4    1
     2     1    24    1
     3     1     2    1
     4     1     3    2
     5    25    28    1
     6    25    24    1
     7    25    26    1
     8    25    27    2
     9     6    11    1
    10     6    12    1
    11    29    36    1
    12    29    37    1
    13     7     9    1
    14     7    13    1
    15     8    10    1
    16     8    14    1
    17     4     5    1
    18    28    36    1
    19    30    33    1
    20    30    38    1
    21    31    34    1
    22    31    39    1
    23    32    35    1
    24    32    40    1
    25    41    43   ar
    26    15    19    2
    27    42    43   ar
    28    16    22    2
    29    17    12    1
    30    17    19   ar
    31    17    20   ar
    32    18    19   ar
    33    18    22   ar
    34    18    23    1
    35     9    10    1
    36     9    11    1
    37    10    12    1
    38    11     5    1
    39    33    34    1
    40    33    35    1
    41    34    36    1
    42    35    37    1
    43    37    43    1
    44    20    21   ar
    45    21    22   ar
@<TRIPOS>MOLECULE
UDP-glaA
 43 45 0 0 0
SMALL
GASTEIGER

@<TRIPOS>ATOM
      1 P          21.8590   72.5203   -5.5973 P.3     1  UNL1        0.2189
      2 O          21.2642   74.0010   -5.3306 O.3     1  UNL1       -0.4371
      3 O          23.0397   72.4697   -6.5223 O.2     1  UNL1       -0.5170
      4 O          20.5693   71.6591   -6.0560 O.3     1  UNL1       -0.3112
      5 C          19.9888   71.9297   -7.3206 C.3     1  UNL1        0.1811
      6 O          18.6400   70.0268   -6.7424 O.3     1  UNL1       -0.3308
      7 O          18.1056   69.7485   -9.6798 O.3     1  UNL1       -0.3794
      8 O          15.8328   70.9514   -8.7724 O.3     1  UNL1       -0.3779
      9 C          18.2607   70.9329   -8.8983 C.3     1  UNL1        0.1713
     10 C          17.0280   71.1684   -8.0512 C.3     1  UNL1        0.1895
     11 C          19.3256   70.6634   -7.8433 C.3     1  UNL1        0.1764
     12 C          17.2215   70.1657   -6.9264 C.3     1  UNL1        0.2383
     13 H          18.9323   69.6174  -10.1746 H       1  UNL1        0.2105
     14 H          15.8373   71.5554   -9.5348 H       1  UNL1        0.2106
     15 O          16.7324   68.4891   -4.7071 O.2     1  UNL1       -0.2464
     16 O          14.9493   71.9560   -2.2494 O.2     1  UNL1       -0.2670
     17 N          16.6313   70.6037   -5.6939 N.ar    1  UNL1       -0.2551
     18 N          15.8443   70.2165   -3.4849 N.ar    1  UNL1       -0.2743
     19 C          16.4277   69.6814   -4.6410 C.ar    1  UNL1        0.3323
     20 C          16.2603   71.9346   -5.5375 C.ar    1  UNL1        0.0869
     21 C          15.7056   72.4295   -4.4288 C.ar    1  UNL1        0.0795
     22 C          15.4582   71.5325   -3.2827 C.ar    1  UNL1        0.2626
     23 H          15.6880   69.5715   -2.7151 H       1  UNL1        0.1734
     24 O          22.1493   71.9720   -4.1039 O.3     1  UNL1       -0.2703
     25 P          23.3872   72.2373   -3.0991 P.3     1  UNL1        0.2208
     26 O          24.5851   72.6755   -4.0936 O.3     1  UNL1       -0.4371
     27 O          23.7162   71.0750   -2.2066 O.2     1  UNL1       -0.5170
     28 O          22.9933   73.5906   -2.3132 O.3     1  UNL1       -0.2858
     29 O          20.8557   72.9369   -1.5367 O.3     1  UNL1       -0.3226
     30 O          23.3777   70.5218    0.7185 O.3     1  UNL1       -0.3794
     31 O          24.0554   73.3143    0.2202 O.3     1  UNL1       -0.3775
     32 O          20.6579   70.7238    0.2804 O.3     1  UNL1       -0.3792
     33 C          22.9105   71.2637   -0.4047 C.3     1  UNL1        0.1718
     34 C          22.7770   72.7477   -0.0469 C.3     1  UNL1        0.1968
     35 C          21.5522   70.7047   -0.8371 C.3     1  UNL1        0.1723
     36 C          22.1142   73.5248   -1.1912 C.3     1  UNL1        0.2706
     37 C          20.9691   71.5754   -1.9480 C.3     1  UNL1        0.1830
     38 H          23.4446   69.5903    0.4476 H       1  UNL1        0.2105
     39 H          23.9217   74.2536    0.4318 H       1  UNL1        0.2106
     40 H          20.3879   71.6433    0.4442 H       1  UNL1        0.2106
     41 O          18.9884   72.0652   -3.1060 O.co2   1  UNL1       -0.5466
     42 O          19.0571   70.1009   -1.9511 O.co2   1  UNL1       -0.5466
     43 C          19.5845   71.1429   -2.3125 C.2     1  UNL1        0.0799
@<TRIPOS>UNITY_ATOM_ATTR
41 1
charge -1
@<TRIPOS>BOND
     1     1     4    1
     2     1    24    1
     3     1     2    1
     4     1     3    2
     5    25    28    1
     6    25    24    1
     7    25    26    1
     8    25    27    2
     9     6    11    1
    10     6    12    1
    11    29    36    1
    12    29    37    1
    13     7     9    1
    14     7    13    1
    15     8    10    1
    16     8    14    1
    17     4     5    1
    18    28    36    1
    19    30    33    1
    20    30    38    1
    21    31    34    1
    22    31    39    1
    23    32    35    1
    24    32    40    1
    25    41    43   ar
    26    15    19    2
    27    42    43   ar
    28    16    22    2
    29    17    12    1
    30    17    19   ar
    31    17    20   ar
    32    18    19   ar
    33    18    22   ar
    34    18    23    1
    35     9    10    1
    36     9    11    1
    37    10    12    1
    38    11     5    1
    39    33    34    1
    40    33    35    1
    41    34    36    1
    42    35    37    1
    43    37    43    1
    44    20    21   ar
    45    21    22   ar
@<TRIPOS>MOLECULE
UDP-glaA
 43 45 0 0 0
SMALL
GASTEIGER

@<TRIPOS>ATOM
      1 P          21.9286   72.4863   -5.7254 P.3     1  UNL1        0.2189
      2 O          21.2996   73.9365   -5.3810 O.3     1  UNL1       -0.4371
      3 O          23.1537   72.5172   -6.5917 O.2     1  UNL1       -0.5170
      4 O          20.6757   71.6469   -6.3096 O.3     1  UNL1       -0.3112
      5 C          20.1461   72.0112   -7.5729 C.3     1  UNL1        0.1811
      6 O          18.9526   69.9677   -7.1562 O.3     1  UNL1       -0.3308
      7 O          18.1582   70.0615  -10.0461 O.3     1  UNL1       -0.3794
      8 O          15.9249   70.9865   -8.7843 O.3     1  UNL1       -0.3779
      9 C          18.3281   71.1351   -9.1209 C.3     1  UNL1        0.1713
     10 C          17.1706   71.1760   -8.1456 C.3     1  UNL1        0.1895
     11 C          19.4995   70.7899   -8.2108 C.3     1  UNL1        0.1764
     12 C          17.5180   70.0427   -7.1955 C.3     1  UNL1        0.2383
     13 H          18.9402   70.0505  -10.6241 H       1  UNL1        0.2105
     14 H          15.8280   71.6883   -9.4509 H       1  UNL1        0.2106
     15 O          16.2704   68.0770   -5.5969 O.2     1  UNL1       -0.2464
     16 O          15.6662   71.0324   -2.1128 O.2     1  UNL1       -0.2670
     17 N          17.0257   70.2707   -5.8669 N.ar    1  UNL1       -0.2551
     18 N          15.9699   69.5501   -3.8632 N.ar    1  UNL1       -0.2743
     19 C          16.4142   69.2162   -5.1493 C.ar    1  UNL1        0.3323
     20 C          17.1506   71.5286   -5.2878 C.ar    1  UNL1        0.0869
     21 C          16.7223   71.8311   -4.0603 C.ar    1  UNL1        0.0795
     22 C          16.0715   70.7866   -3.2447 C.ar    1  UNL1        0.2626
     23 H          15.5265   68.8077   -3.3290 H       1  UNL1        0.1734
     24 O          22.1538   71.8325   -4.2636 O.3     1  UNL1       -0.2703
     25 P          23.4137   71.9023   -3.2535 P.3     1  UNL1        0.2208
     26 O          24.1841   73.2480   -3.7137 O.3     1  UNL1       -0.4371
     27 O          24.2697   70.6682   -3.2503 O.2     1  UNL1       -0.5170
     28 O          22.7692   72.2704   -1.8206 O.3     1  UNL1       -0.2858
     29 O          23.3207   70.8377   -0.0199 O.3     1  UNL1       -0.3226
     30 O          20.1768   73.0515    1.5596 O.3     1  UNL1       -0.3794
     31 O          20.0846   72.1057   -1.1977 O.3     1  UNL1       -0.3775
     32 O          22.0194   71.2257    2.5089 O.3     1  UNL1       -0.3792
     33 C          21.3344   72.7663    0.7792 C.3     1  UNL1        0.1718
     34 C          21.0346   71.6585   -0.2363 C.3     1  UNL1        0.1968
     35 C          22.4659   72.3286    1.7132 C.3     1  UNL1        0.1723
     36 C          22.3148   71.2256   -0.9616 C.3     1  UNL1        0.2706
     37 C          23.6701   71.8825    0.8867 C.3     1  UNL1        0.1830
     38 H          20.4130   73.7545    2.1885 H       1  UNL1        0.2105
     39 H          19.9342   71.3766   -1.8227 H       1  UNL1        0.2106
     40 H          21.9844   70.4333    1.9467 H       1  UNL1        0.2106
     41 O          24.6605   69.9745    1.8260 O.co2   1  UNL1       -0.5466
     42 O          25.6090   71.9874    2.3217 O.co2   1  UNL1       -0.5466
     43 C          24.7529   71.3243    1.7544 C.2     1  UNL1        0.0799
@<TRIPOS>UNITY_ATOM_ATTR
41 1
charge -1
@<TRIPOS>BOND
     1     1     4    1
     2     1    24    1
     3     1     2    1
     4     1     3    2
     5    25    28    1
     6    25    24    1
     7    25    26    1
     8    25    27    2
     9     6    11    1
    10     6    12    1
    11    29    36    1
    12    29    37    1
    13     7     9    1
    14     7    13    1
    15     8    10    1
    16     8    14    1
    17     4     5    1
    18    28    36    1
    19    30    33    1
    20    30    38    1
    21    31    34    1
    22    31    39    1
    23    32    35    1
    24    32    40    1
    25    41    43   ar
    26    15    19    2
    27    42    43   ar
    28    16    22    2
    29    17    12    1
    30    17    19   ar
    31    17    20   ar
    32    18    19   ar
    33    18    22   ar
    34    18    23    1
    35     9    10    1
    36     9    11    1
    37    10    12    1
    38    11     5    1
    39    33    34    1
    40    33    35    1
    41    34    36    1
    42    35    37    1
    43    37    43    1
    44    20    21   ar
    45    21    22   ar
@<TRIPOS>MOLECULE
UDP-glaA
 43 45 0 0 0
SMALL
GASTEIGER

@<TRIPOS>ATOM
      1 P          22.8575   73.0250   -4.2881 P.3     1  UNL1        0.2189
      2 O          24.4165   72.6680   -4.0439 O.3     1  UNL1       -0.4371
      3 O          22.6034   74.3834   -4.8730 O.2     1  UNL1       -0.5170
      4 O          22.1624   72.7346   -2.8570 O.3     1  UNL1       -0.3112
      5 C          22.9722   72.7560   -1.6938 C.3     1  UNL1        0.1811
      6 O          23.8500   71.2512   -0.0386 O.3     1  UNL1       -0.3308
      7 O          21.0221   70.3368    0.3594 O.3     1  UNL1       -0.3794
      8 O          21.4067   72.0191    2.4707 O.3     1  UNL1       -0.3779
      9 C          21.5164   71.6446    0.0710 C.3     1  UNL1        0.1713
     10 C          22.1659   72.2435    1.3007 C.3     1  UNL1        0.1895
     11 C          22.7000   71.5010   -0.8766 C.3     1  UNL1        0.1764
     12 C          23.5068   71.5299    1.3288 C.3     1  UNL1        0.2383
     13 H          20.6513   69.9789   -0.4652 H       1  UNL1        0.2105
     14 H          20.5282   72.4119    2.3294 H       1  UNL1        0.2106
     15 O          25.8855   70.4955    2.4456 O.2     1  UNL1       -0.2464
     16 O          27.4084   74.7006    3.5574 O.2     1  UNL1       -0.2670
     17 N          24.5421   72.3314    1.9163 N.ar    1  UNL1       -0.2551
     18 N          26.6420   72.5901    2.9990 N.ar    1  UNL1       -0.2743
     19 C          25.6970   71.7133    2.4501 C.ar    1  UNL1        0.3323
     20 C          24.4074   73.7147    1.9596 C.ar    1  UNL1        0.0869
     21 C          25.3176   74.5371    2.4859 C.ar    1  UNL1        0.0795
     22 C          26.5523   73.9719    3.0654 C.ar    1  UNL1        0.2626
     23 H          27.4802   72.1679    3.3892 H       1  UNL1        0.1734
     24 O          22.3419   71.7923   -5.1990 O.3     1  UNL1       -0.2703
     25 P          20.8916   71.0868   -5.3056 P.3     1  UNL1        0.2208
     26 O          19.9052   72.3181   -5.6618 O.3     1  UNL1       -0.4371
     27 O          20.4945   70.3074   -4.0846 O.2     1  UNL1       -0.5170
     28 O          20.9603   70.2134   -6.6608 O.3     1  UNL1       -0.2858
     29 O          18.9548   70.1723   -7.9160 O.3     1  UNL1       -0.3226
     30 O          19.2721   74.1937   -6.9126 O.3     1  UNL1       -0.3794
     31 O          21.6302   72.6761   -7.7138 O.3     1  UNL1       -0.3775
     32 O          17.3748   72.5628   -8.0832 O.3     1  UNL1       -0.3792
     33 C          19.3920   72.7808   -6.7724 C.3     1  UNL1        0.1718
     34 C          20.2944   72.2095   -7.8713 C.3     1  UNL1        0.1968
     35 C          17.9978   72.1542   -6.8610 C.3     1  UNL1        0.1723
     36 C          20.2921   70.6762   -7.8335 C.3     1  UNL1        0.2706
     37 C          18.1181   70.6318   -6.8557 C.3     1  UNL1        0.1830
     38 H          18.6919   74.5110   -6.1996 H       1  UNL1        0.2105
     39 H          22.1643   72.2819   -8.4238 H       1  UNL1        0.2106
     40 H          17.7932   72.0836   -8.8184 H       1  UNL1        0.2106
     41 O          16.3022   70.2782   -8.2984 O.co2   1  UNL1       -0.5466
     42 O          16.2197   69.2649   -6.2579 O.co2   1  UNL1       -0.5466
     43 C          16.7906   69.9773   -7.0710 C.2     1  UNL1        0.0799
@<TRIPOS>UNITY_ATOM_ATTR
41 1
charge -1
@<TRIPOS>BOND
     1     1     4    1
     2     1    24    1
     3     1     2    1
     4     1     3    2
     5    25    28    1
     6    25    24    1
     7    25    26    1
     8    25    27    2
     9     6    11    1
    10     6    12    1
    11    29    36    1
    12    29    37    1
    13     7     9    1
    14     7    13    1
    15     8    10    1
    16     8    14    1
    17     4     5    1
    18    28    36    1
    19    30    33    1
    20    30    38    1
    21    31    34    1
    22    31    39    1
    23    32    35    1
    24    32    40    1
    25    41    43   ar
    26    15    19    2
    27    42    43   ar
    28    16    22    2
    29    17    12    1
    30    17    19   ar
    31    17    20   ar
    32    18    19   ar
    33    18    22   ar
    34    18    23    1
    35     9    10    1
    36     9    11    1
    37    10    12    1
    38    11     5    1
    39    33    34    1
    40    33    35    1
    41    34    36    1
    42    35    37    1
    43    37    43    1
    44    20    21   ar
    45    21    22   ar
@<TRIPOS>MOLECULE
UDP-glaA
 43 45 0 0 0
SMALL
GASTEIGER

@<TRIPOS>ATOM
      1 P          21.9612   74.9194   -4.6159 P.3     1  UNL1        0.2189
      2 O          20.4861   74.6771   -3.9971 O.3     1  UNL1       -0.4371
      3 O          22.0436   76.0046   -5.6493 O.2     1  UNL1       -0.5170
      4 O          22.4262   73.4488   -5.1023 O.3     1  UNL1       -0.3112
      5 C          21.5508   72.3553   -4.8853 C.3     1  UNL1        0.1811
      6 O          20.5189   70.4612   -5.9445 O.3     1  UNL1       -0.3308
      7 O          20.8338   71.9658   -8.5191 O.3     1  UNL1       -0.3794
      8 O          18.2066   72.3701   -7.9107 O.3     1  UNL1       -0.3779
      9 C          20.5342   72.4612   -7.2143 C.3     1  UNL1        0.1713
     10 C          19.1028   72.1344   -6.8444 C.3     1  UNL1        0.1895
     11 C          21.3207   71.6342   -6.2058 C.3     1  UNL1        0.1764
     12 C          19.1995   70.6635   -6.4771 C.3     1  UNL1        0.2383
     13 H          21.7693   72.1633   -8.6963 H       1  UNL1        0.2105
     14 H          18.2847   73.3080   -8.1567 H       1  UNL1        0.2106
     15 O          16.5697   69.8156   -7.0609 O.2     1  UNL1       -0.2464
     16 O          15.5758   69.2209   -2.6002 O.2     1  UNL1       -0.2670
     17 N          18.2327   70.2806   -5.4881 N.ar    1  UNL1       -0.2551
     18 N          16.0763   69.5205   -4.8392 N.ar    1  UNL1       -0.2743
     19 C          16.9388   69.8710   -5.8864 C.ar    1  UNL1        0.3323
     20 C          18.5703   70.3135   -4.1396 C.ar    1  UNL1        0.0869
     21 C          17.7369   69.9758   -3.1532 C.ar    1  UNL1        0.0795
     22 C          16.3664   69.5375   -3.4838 C.ar    1  UNL1        0.2626
     23 H          15.1405   69.2234   -5.1020 H       1  UNL1        0.1734
     24 O          22.8688   75.1709   -3.3013 O.3     1  UNL1       -0.2703
     25 P          24.3456   74.6395   -2.9150 P.3     1  UNL1        0.2208
     26 O          25.0647   75.9533   -2.3044 O.3     1  UNL1       -0.4371
     27 O          25.0872   73.9995   -4.0535 O.2     1  UNL1       -0.5170
     28 O          24.1129   73.6732   -1.6438 O.3     1  UNL1       -0.2858
     29 O          22.1444   73.0413   -0.4927 O.3     1  UNL1       -0.3226
     30 O          24.9368   73.2047    2.5821 O.3     1  UNL1       -0.3794
     31 O          24.9202   75.2330    0.4865 O.3     1  UNL1       -0.3775
     32 O          22.3240   72.3576    2.2891 O.3     1  UNL1       -0.3792
     33 C          24.4222   72.9874    1.2713 C.3     1  UNL1        0.1718
     34 C          23.8701   74.2936    0.6906 C.3     1  UNL1        0.1968
     35 C          23.3119   71.9355    1.3432 C.3     1  UNL1        0.1723
     36 C          23.1610   74.0374   -0.6451 C.3     1  UNL1        0.2706
     37 C          22.6514   71.7920   -0.0262 C.3     1  UNL1        0.1830
     38 H          25.2723   72.3532    2.9105 H       1  UNL1        0.2105
     39 H          24.5252   76.0375    0.1103 H       1  UNL1        0.2106
     40 H          21.8087   73.0818    1.8952 H       1  UNL1        0.2106
     41 O          21.5638   70.0436    1.0981 O.co2   1  UNL1       -0.5466
     42 O          20.5561   70.8572   -0.7780 O.co2   1  UNL1       -0.5466
     43 C          21.4756   70.8692    0.0274 C.2     1  UNL1        0.0799
@<TRIPOS>UNITY_ATOM_ATTR
41 1
charge -1
@<TRIPOS>BOND
     1     1     4    1
     2     1    24    1
     3     1     2    1
     4     1     3    2
     5    25    28    1
     6    25    24    1
     7    25    26    1
     8    25    27    2
     9     6    11    1
    10     6    12    1
    11    29    36    1
    12    29    37    1
    13     7     9    1
    14     7    13    1
    15     8    10    1
    16     8    14    1
    17     4     5    1
    18    28    36    1
    19    30    33    1
    20    30    38    1
    21    31    34    1
    22    31    39    1
    23    32    35    1
    24    32    40    1
    25    41    43   ar
    26    15    19    2
    27    42    43   ar
    28    16    22    2
    29    17    12    1
    30    17    19   ar
    31    17    20   ar
    32    18    19   ar
    33    18    22   ar
    34    18    23    1
    35     9    10    1
    36     9    11    1
    37    10    12    1
    38    11     5    1
    39    33    34    1
    40    33    35    1
    41    34    36    1
    42    35    37    1
    43    37    43    1
    44    20    21   ar
    45    21    22   ar
@<TRIPOS>MOLECULE
UDP-glaA
 43 45 0 0 0
SMALL
GASTEIGER

@<TRIPOS>ATOM
      1 P          23.4023   72.1384   -3.5484 P.3     1  UNL1        0.2189
      2 O          24.1598   70.8102   -3.0198 O.3     1  UNL1       -0.4371
      3 O          24.1574   72.9317   -4.5744 O.2     1  UNL1       -0.5170
      4 O          23.0139   72.9309   -2.1933 O.3     1  UNL1       -0.3112
      5 C          22.0206   72.3784   -1.3463 C.3     1  UNL1        0.1811
      6 O          24.0047   72.3057    0.0073 O.3     1  UNL1       -0.3308
      7 O          22.3297   70.8958    2.0561 O.3     1  UNL1       -0.3794
      8 O          22.4237   73.4462    3.0165 O.3     1  UNL1       -0.3779
      9 C          21.9663   71.9453    1.1594 C.3     1  UNL1        0.1713
     10 C          22.5574   73.2600    1.6226 C.3     1  UNL1        0.1895
     11 C          22.6974   71.7131   -0.1564 C.3     1  UNL1        0.1764
     12 C          24.0069   73.1251    1.1879 C.3     1  UNL1        0.2383
     13 H          21.9627   70.0692    1.6988 H       1  UNL1        0.2105
     14 H          21.4745   73.4117    3.2266 H       1  UNL1        0.2106
     15 O          25.6270   74.6041    2.9665 O.2     1  UNL1       -0.2464
     16 O          26.2507   77.9739   -0.1148 O.2     1  UNL1       -0.2670
     17 N          24.6060   74.3914    0.8765 N.ar    1  UNL1       -0.2551
     18 N          25.9361   76.2814    1.4311 N.ar    1  UNL1       -0.2743
     19 C          25.4019   75.0526    1.8409 C.ar    1  UNL1        0.3323
     20 C          24.4024   74.9659   -0.3732 C.ar    1  UNL1        0.0869
     21 C          24.9191   76.1380   -0.7489 C.ar    1  UNL1        0.0795
     22 C          25.7614   76.8933    0.1995 C.ar    1  UNL1        0.2626
     23 H          26.5112   76.7749    2.1085 H       1  UNL1        0.1734
     24 O          21.9774   71.5654   -4.0550 O.3     1  UNL1       -0.2703
     25 P          20.9047   72.1676   -5.1035 P.3     1  UNL1        0.2208
     26 O          21.4736   71.6809   -6.5372 O.3     1  UNL1       -0.4371
     27 O          20.6979   73.6509   -4.9896 O.2     1  UNL1       -0.5170
     28 O          19.5708   71.2891   -4.8738 O.3     1  UNL1       -0.2858
     29 O          18.1231   71.5310   -6.7299 O.3     1  UNL1       -0.3226
     30 O          15.8774   69.1364   -4.1800 O.3     1  UNL1       -0.3794
     31 O          17.4323   71.3689   -3.1293 O.3     1  UNL1       -0.3775
     32 O          15.6796   70.0261   -6.7875 O.3     1  UNL1       -0.3792
     33 C          17.0340   69.6687   -4.8196 C.3     1  UNL1        0.1718
     34 C          17.1732   71.1639   -4.5141 C.3     1  UNL1        0.1968
     35 C          16.9085   69.4520   -6.3302 C.3     1  UNL1        0.1723
     36 C          18.3130   71.7819   -5.3335 C.3     1  UNL1        0.2706
     37 C          18.0688   70.1406   -7.0455 C.3     1  UNL1        0.1830
     38 H          15.8280   68.1910   -4.4024 H       1  UNL1        0.2105
     39 H          17.5218   72.3262   -2.9862 H       1  UNL1        0.2106
     40 H          15.7727   70.9939   -6.7897 H       1  UNL1        0.2106
     41 O          16.7903   70.7029   -8.9305 O.co2   1  UNL1       -0.5466
     42 O          18.6997   69.5104   -9.2893 O.co2   1  UNL1       -0.5466
     43 C          17.9173   70.0655   -8.5316 C.2     1  UNL1        0.0799
@<TRIPOS>UNITY_ATOM_ATTR
41 1
charge -1
@<TRIPOS>BOND
     1     1     4    1
     2     1    24    1
     3     1     2    1
     4     1     3    2
     5    25    28    1
     6    25    24    1
     7    25    26    1
     8    25    27    2
     9     6    11    1
    10     6    12    1
    11    29    36    1
    12    29    37    1
    13     7     9    1
    14     7    13    1
    15     8    10    1
    16     8    14    1
    17     4     5    1
    18    28    36    1
    19    30    33    1
    20    30    38    1
    21    31    34    1
    22    31    39    1
    23    32    35    1
    24    32    40    1
    25    41    43   ar
    26    15    19    2
    27    42    43   ar
    28    16    22    2
    29    17    12    1
    30    17    19   ar
    31    17    20   ar
    32    18    19   ar
    33    18    22   ar
    34    18    23    1
    35     9    10    1
    36     9    11    1
    37    10    12    1
    38    11     5    1
    39    33    34    1
    40    33    35    1
    41    34    36    1
    42    35    37    1
    43    37    43    1
    44    20    21   ar
    45    21    22   ar
@<TRIPOS>MOLECULE
UDP-glaA
 43 45 0 0 0
SMALL
GASTEIGER

@<TRIPOS>ATOM
      1 P          23.5895   72.4359   -3.3909 P.3     1  UNL1        0.2189
      2 O          24.1843   70.9650   -3.0744 O.3     1  UNL1       -0.4371
      3 O          24.6201   73.4831   -3.6966 O.2     1  UNL1       -0.5170
      4 O          22.6251   72.7458   -2.1302 O.3     1  UNL1       -0.3112
      5 C          23.2109   72.8836   -0.8469 C.3     1  UNL1        0.1811
      6 O          24.3306   71.3335    0.6084 O.3     1  UNL1       -0.3308
      7 O          21.6141   70.2033    1.1871 O.3     1  UNL1       -0.3794
      8 O          22.0894   71.7608    3.3743 O.3     1  UNL1       -0.3779
      9 C          21.9976   71.5583    0.9533 C.3     1  UNL1        0.1713
     10 C          22.7207   72.1153    2.1613 C.3     1  UNL1        0.1895
     11 C          23.0942   71.5604   -0.1036 C.3     1  UNL1        0.1764
     12 C          24.0999   71.4947    2.0177 C.3     1  UNL1        0.2383
     13 H          21.1908   69.8776    0.3745 H       1  UNL1        0.2105
     14 H          21.1789   72.1014    3.3408 H       1  UNL1        0.2106
     15 O          26.7756   70.6713    2.3898 O.2     1  UNL1       -0.2464
     16 O          27.9819   74.7592    4.1427 O.2     1  UNL1       -0.2670
     17 N          25.1340   72.3232    2.5685 N.ar    1  UNL1       -0.2551
     18 N          27.3744   72.7073    3.2629 N.ar    1  UNL1       -0.2743
     19 C          26.4454   71.8134    2.7142 C.ar    1  UNL1        0.3323
     20 C          24.8443   73.6262    2.9583 C.ar    1  UNL1        0.0869
     21 C          25.7413   74.4662    3.4794 C.ar    1  UNL1        0.0795
     22 C          27.1335   74.0117    3.6658 C.ar    1  UNL1        0.2626
     23 H          28.3235   72.3621    3.3774 H       1  UNL1        0.1734
     24 O          22.5411   72.1527   -4.5892 O.3     1  UNL1       -0.2703
     25 P          22.0836   73.0723   -5.8372 P.3     1  UNL1        0.2208
     26 O          22.9965   72.5256   -7.0553 O.3     1  UNL1       -0.4371
     27 O          22.2002   74.5491   -5.5894 O.2     1  UNL1       -0.5170
     28 O          20.5906   72.5711   -6.1888 O.3     1  UNL1       -0.2858
     29 O          19.5123   70.5577   -5.5700 O.3     1  UNL1       -0.3226
     30 O          17.7538   71.3944   -9.2424 O.3     1  UNL1       -0.3794
     31 O          20.6133   71.8047   -8.8411 O.3     1  UNL1       -0.3775
     32 O          17.3550   69.5846   -7.1941 O.3     1  UNL1       -0.3792
     33 C          18.3493   71.6440   -7.9722 C.3     1  UNL1        0.1718
     34 C          19.7784   71.0923   -7.9343 C.3     1  UNL1        0.1968
     35 C          17.5005   70.9752   -6.8874 C.3     1  UNL1        0.1723
     36 C          20.3657   71.2019   -6.5217 C.3     1  UNL1        0.2706
     37 C          18.1971   71.1098   -5.5351 C.3     1  UNL1        0.1830
     38 H          16.8520   71.7574   -9.2201 H       1  UNL1        0.2105
     39 H          21.5068   71.4277   -8.7753 H       1  UNL1        0.2106
     40 H          18.1987   69.1379   -7.0105 H       1  UNL1        0.2106
     41 O          18.0629   70.5404   -3.2632 O.co2   1  UNL1       -0.5466
     42 O          16.4699   69.6759   -4.6460 O.co2   1  UNL1       -0.5466
     43 C          17.4679   70.3589   -4.4668 C.2     1  UNL1        0.0799
@<TRIPOS>UNITY_ATOM_ATTR
41 1
charge -1
@<TRIPOS>BOND
     1     1     4    1
     2     1    24    1
     3     1     2    1
     4     1     3    2
     5    25    28    1
     6    25    24    1
     7    25    26    1
     8    25    27    2
     9     6    11    1
    10     6    12    1
    11    29    36    1
    12    29    37    1
    13     7     9    1
    14     7    13    1
    15     8    10    1
    16     8    14    1
    17     4     5    1
    18    28    36    1
    19    30    33    1
    20    30    38    1
    21    31    34    1
    22    31    39    1
    23    32    35    1
    24    32    40    1
    25    41    43   ar
    26    15    19    2
    27    42    43   ar
    28    16    22    2
    29    17    12    1
    30    17    19   ar
    31    17    20   ar
    32    18    19   ar
    33    18    22   ar
    34    18    23    1
    35     9    10    1
    36     9    11    1
    37    10    12    1
    38    11     5    1
    39    33    34    1
    40    33    35    1
    41    34    36    1
    42    35    37    1
    43    37    43    1
    44    20    21   ar
    45    21    22   ar
@<TRIPOS>MOLECULE
UDP-glaA
 43 45 0 0 0
SMALL
GASTEIGER

@<TRIPOS>ATOM
      1 P          21.8891   72.4753   -5.7856 P.3     1  UNL1        0.2189
      2 O          21.2236   73.9270   -5.5267 O.3     1  UNL1       -0.4371
      3 O          23.1474   72.4925   -6.6032 O.2     1  UNL1       -0.5170
      4 O          20.6743   71.5908   -6.3836 O.3     1  UNL1       -0.3112
      5 C          20.1301   71.9504   -7.6421 C.3     1  UNL1        0.1811
      6 O          18.9067   69.9314   -7.1939 O.3     1  UNL1       -0.3308
      7 O          18.1061   69.9968  -10.0829 O.3     1  UNL1       -0.3794
      8 O          15.8905   70.9735   -8.8287 O.3     1  UNL1       -0.3779
      9 C          18.2948   71.0806   -9.1732 C.3     1  UNL1        0.1713
     10 C          17.1406   71.1528   -8.1958 C.3     1  UNL1        0.1895
     11 C          19.4632   70.7303   -8.2612 C.3     1  UNL1        0.1764
     12 C          17.4733   70.0277   -7.2307 C.3     1  UNL1        0.2383
     13 H          18.8863   69.9658  -10.6625 H       1  UNL1        0.2105
     14 H          15.8025   71.6673   -9.5048 H       1  UNL1        0.2106
     15 O          16.2940   68.0780   -5.5623 O.2     1  UNL1       -0.2464
     16 O          15.6454   71.1179   -2.1599 O.2     1  UNL1       -0.2670
     17 N          16.9880   70.2818   -5.9043 N.ar    1  UNL1       -0.2551
     18 N          15.9713   69.5931   -3.8693 N.ar    1  UNL1       -0.2743
     19 C          16.4119   69.2332   -5.1498 C.ar    1  UNL1        0.3323
     20 C          17.0851   71.5591   -5.3635 C.ar    1  UNL1        0.0869
     21 C          16.6609   71.8863   -4.1409 C.ar    1  UNL1        0.0795
     22 C          16.0461   70.8496   -3.2883 C.ar    1  UNL1        0.2626
     23 H          15.5531   68.8554   -3.3091 H       1  UNL1        0.1734
     24 O          22.0656   71.8857   -4.2902 O.3     1  UNL1       -0.2703
     25 P          23.2643   72.0535   -3.2189 P.3     1  UNL1        0.2208
     26 O          23.9727   73.4364   -3.6685 O.3     1  UNL1       -0.4371
     27 O          24.1938   70.8761   -3.1451 O.2     1  UNL1       -0.5170
     28 O          22.5242   72.4068   -1.8292 O.3     1  UNL1       -0.2858
     29 O          22.5255   74.2869   -0.3923 O.3     1  UNL1       -0.3226
     30 O          22.4767   71.1270    2.3081 O.3     1  UNL1       -0.3794
     31 O          24.1413   71.0065   -0.0837 O.3     1  UNL1       -0.3775
     32 O          22.2153   73.8741    2.4311 O.3     1  UNL1       -0.3792
     33 C          22.2011   71.8506    1.1119 C.3     1  UNL1        0.1718
     34 C          23.5043   72.1917    0.3813 C.3     1  UNL1        0.1968
     35 C          21.4508   73.1358    1.4723 C.3     1  UNL1        0.1723
     36 C          23.2320   73.1151   -0.8126 C.3     1  UNL1        0.2706
     37 C          21.2714   73.9933    0.2215 C.3     1  UNL1        0.1830
     38 H          21.6257   70.9352    2.7376 H       1  UNL1        0.2105
     39 H          24.9539   71.2723   -0.5462 H       1  UNL1        0.2106
     40 H          22.9754   74.2756    1.9771 H       1  UNL1        0.2106
     41 O          19.3073   75.2534    0.4622 O.co2   1  UNL1       -0.5466
     42 O          21.2817   76.3226    0.8570 O.co2   1  UNL1       -0.5466
     43 C          20.6579   75.3173    0.5491 C.2     1  UNL1        0.0799
@<TRIPOS>UNITY_ATOM_ATTR
41 1
charge -1
@<TRIPOS>BOND
     1     1     4    1
     2     1    24    1
     3     1     2    1
     4     1     3    2
     5    25    28    1
     6    25    24    1
     7    25    26    1
     8    25    27    2
     9     6    11    1
    10     6    12    1
    11    29    36    1
    12    29    37    1
    13     7     9    1
    14     7    13    1
    15     8    10    1
    16     8    14    1
    17     4     5    1
    18    28    36    1
    19    30    33    1
    20    30    38    1
    21    31    34    1
    22    31    39    1
    23    32    35    1
    24    32    40    1
    25    41    43   ar
    26    15    19    2
    27    42    43   ar
    28    16    22    2
    29    17    12    1
    30    17    19   ar
    31    17    20   ar
    32    18    19   ar
    33    18    22   ar
    34    18    23    1
    35     9    10    1
    36     9    11    1
    37    10    12    1
    38    11     5    1
    39    33    34    1
    40    33    35    1
    41    34    36    1
    42    35    37    1
    43    37    43    1
    44    20    21   ar
    45    21    22   ar
