@<TRIPOS>MOLECULE
UD2
 46 48 0 0 0
SMALL
GASTEIGER

@<TRIPOS>ATOM
      1 P          20.8655   72.0509   -2.3162 P.3     1  UNL1        0.2189
      2 O          22.1330   71.4867   -3.1325 O.3     1  UNL1       -0.4371
      3 O          20.9563   73.5245   -2.2196 O.2     1  UNL1       -0.5170
      4 O          19.5092   71.6460   -3.0844 O.3     1  UNL1       -0.3112
      5 C          18.4366   70.9462   -2.4510 C.3     1  UNL1        0.1811
      6 C          16.8968   70.5445   -5.6766 C.3     1  UNL1        0.2383
      7 C          16.9246   69.1154   -5.0773 C.3     1  UNL1        0.1895
      8 O          15.8179   68.3436   -5.5475 O.3     1  UNL1       -0.3779
      9 C          16.7972   69.3964   -3.5600 C.3     1  UNL1        0.1713
     10 C          17.2462   70.8625   -3.4096 C.3     1  UNL1        0.1764
     11 O          17.6341   71.3270   -4.7123 O.3     1  UNL1       -0.3308
     12 O          15.4417   69.2419   -3.1362 O.3     1  UNL1       -0.3794
     13 H          15.7917   67.4414   -5.2010 H       1  UNL1        0.2106
     14 H          15.0881   68.3513   -3.2634 H       1  UNL1        0.2105
     15 N          17.5634   70.5702   -6.9804 N.ar    1  UNL1       -0.2551
     16 C          16.8301   70.4960   -8.1054 C.ar    1  UNL1        0.3323
     17 N          17.4161   70.5172   -9.3171 N.ar    1  UNL1       -0.2743
     18 C          18.7571   70.6158   -9.4208 C.ar    1  UNL1        0.2626
     19 C          19.5412   70.6957   -8.2449 C.ar    1  UNL1        0.0795
     20 C          18.9268   70.6765   -7.0434 C.ar    1  UNL1        0.0869
     21 O          15.6200   70.4070   -8.0269 O.2     1  UNL1       -0.2464
     22 O          19.2887   70.6355  -10.5170 O.2     1  UNL1       -0.2670
     23 H          16.8726   70.4616  -10.1181 H       1  UNL1        0.1734
     24 O          20.8536   71.4155   -0.8366 O.3     1  UNL1       -0.2703
     25 P          21.8346   71.5262    0.4355 P.3     1  UNL1        0.2208
     26 O          21.9396   70.0908    1.1582 O.3     1  UNL1       -0.4371
     27 O          23.1786   71.9513   -0.0132 O.2     1  UNL1       -0.5170
     28 O          21.2476   72.6083    1.4733 O.3     1  UNL1       -0.2865
     29 C          21.9997   73.7320    1.9349 C.3     1  UNL1        0.2611
     30 C          22.7578   73.3512    3.2089 C.3     1  UNL1        0.1582
     31 C          21.7495   72.9854    4.3025 C.3     1  UNL1        0.1625
     32 C          20.8006   74.1666    4.5229 C.3     1  UNL1        0.1686
     33 C          20.1177   74.5159    3.1979 C.3     1  UNL1        0.1760
     34 O          22.4462   72.6994    5.5175 O.3     1  UNL1       -0.3801
     35 O          21.5425   75.2945    4.9904 O.3     1  UNL1       -0.3794
     36 O          21.1118   74.8159    2.2161 O.3     1  UNL1       -0.3263
     37 H          21.8683   72.4587    6.2545 H       1  UNL1        0.2105
     38 H          21.0033   76.0816    5.1510 H       1  UNL1        0.2105
     39 C          24.9464   72.3836    2.7493 C.2     1  UNL1        0.2231
     40 C          25.8381   71.2022    2.4704 C.3     1  UNL1        0.0946
     41 N          23.6244   72.2016    2.9374 N.am    1  UNL1       -0.2994
     42 O          25.4181   73.5001    2.8046 O.2     1  UNL1       -0.2751
     43 H          23.2468   71.3092    2.8923 H       1  UNL1        0.1496
     44 C          19.2127   75.7333    3.3963 C.3     1  UNL1        0.1693
     45 O          18.3679   75.5202    4.5291 O.3     1  UNL1       -0.3794
     46 H          17.7657   76.2536    4.7148 H       1  UNL1        0.2105
@<TRIPOS>BOND
     1    29    30    1
     2    30    41    1
     3    30    31    1
     4    31    34    1
     5    31    32    1
     6    32    35    1
     7    32    33    1
     8    33    36    1
     9    33    44    1
    10    39    40    1
    11    39    42    2
    12    39    41   am
    13    41    43    1
    14    29    28    1
    15    34    37    1
    16    35    38    1
    17    29    36    1
    18    44    45    1
    19    45    46    1
    20    15     6    1
    21    15    16   ar
    22    16    21    2
    23    16    17   ar
    24    17    23    1
    25    17    18   ar
    26    18    19   ar
    27    19    20   ar
    28    15    20   ar
    29    18    22    2
    30     6     7    1
    31     6    11    1
    32     7     9    1
    33     7     8    1
    34     8    13    1
    35     9    10    1
    36     9    12    1
    37    10     5    1
    38    10    11    1
    39    12    14    1
    40     5     4    1
    41     4     1    1
    42     1     2    1
    43     1    24    1
    44     1     3    2
    45    24    25    1
    46    28    25    1
    47    25    26    1
    48    25    27    2
@<TRIPOS>MOLECULE
UD2
 46 48 0 0 0
SMALL
GASTEIGER

@<TRIPOS>ATOM
      1 P          21.2395   71.6839   -2.3863 P.3     1  UNL1        0.2189
      2 O          20.6435   73.0505   -1.7792 O.3     1  UNL1       -0.4371
      3 O          21.7836   70.8524   -1.2902 O.2     1  UNL1       -0.5170
      4 O          20.0684   70.8768   -3.1417 O.3     1  UNL1       -0.3112
      5 C          18.9264   70.3491   -2.4643 C.3     1  UNL1        0.1811
      6 C          17.1658   70.4410   -5.5994 C.3     1  UNL1        0.2383
      7 C          17.0021   68.9819   -5.1031 C.3     1  UNL1        0.1895
      8 O          15.7634   68.4270   -5.5500 O.3     1  UNL1       -0.3779
      9 C          17.0049   69.1592   -3.5649 C.3     1  UNL1        0.1713
     10 C          17.6862   70.5233   -3.3444 C.3     1  UNL1        0.1764
     11 O          18.0693   71.0238   -4.6352 O.3     1  UNL1       -0.3308
     12 O          15.6677   69.1805   -3.0628 O.3     1  UNL1       -0.3794
     13 H          15.6152   67.5151   -5.2654 H       1  UNL1        0.2106
     14 H          15.1720   68.3670   -3.2270 H       1  UNL1        0.2105
     15 N          17.7546   70.4668   -6.9401 N.ar    1  UNL1       -0.2551
     16 C          16.9541   70.4325   -8.0203 C.ar    1  UNL1        0.3323
     17 N          17.4679   70.4548   -9.2644 N.ar    1  UNL1       -0.2743
     18 C          18.8028   70.5142   -9.4464 C.ar    1  UNL1        0.2626
     19 C          19.6572   70.5519   -8.3183 C.ar    1  UNL1        0.0795
     20 C          19.1146   70.5326   -7.0827 C.ar    1  UNL1        0.0869
     21 O          15.7486   70.3790   -7.8712 O.2     1  UNL1       -0.2464
     22 O          19.2691   70.5349  -10.5719 O.2     1  UNL1       -0.2670
     23 H          16.8765   70.4282  -10.0323 H       1  UNL1        0.1734
     24 O          22.4140   72.0285   -3.4328 O.3     1  UNL1       -0.2703
     25 P          23.1744   73.3843   -3.8532 P.3     1  UNL1        0.2208
     26 O          23.2151   74.3885   -2.5947 O.3     1  UNL1       -0.4371
     27 O          24.5563   73.0651   -4.2737 O.2     1  UNL1       -0.5170
     28 O          22.3897   74.0835   -5.0730 O.3     1  UNL1       -0.2865
     29 C          21.4315   73.3950   -5.8787 C.3     1  UNL1        0.2611
     30 C          21.2613   74.1298   -7.2106 C.3     1  UNL1        0.1582
     31 C          20.7181   75.5366   -6.9419 C.3     1  UNL1        0.1625
     32 C          19.4015   75.4247   -6.1683 C.3     1  UNL1        0.1686
     33 C          19.6435   74.6399   -4.8763 C.3     1  UNL1        0.1760
     34 O          20.4867   76.2041   -8.1846 O.3     1  UNL1       -0.3801
     35 O          18.4340   74.7424   -6.9682 O.3     1  UNL1       -0.3794
     36 O          20.1771   73.3532   -5.1952 O.3     1  UNL1       -0.3263
     37 H          20.1421   77.1027   -8.0896 H       1  UNL1        0.2105
     38 H          17.5735   74.6348   -6.5393 H       1  UNL1        0.2105
     39 C          23.3158   75.3305   -7.7350 C.2     1  UNL1        0.2231
     40 C          24.6493   75.4303   -8.4282 C.3     1  UNL1        0.0946
     41 N          22.5581   74.2262   -7.8854 N.am    1  UNL1       -0.2994
     42 O          22.9230   76.2446   -7.0405 O.2     1  UNL1       -0.2751
     43 H          22.8713   73.4955   -8.4414 H       1  UNL1        0.1496
     44 C          18.3207   74.4722   -4.1264 C.3     1  UNL1        0.1693
     45 O          17.4438   75.5506   -4.4588 O.3     1  UNL1       -0.3794
     46 H          16.5839   75.5091   -4.0183 H       1  UNL1        0.2105
@<TRIPOS>BOND
     1    29    30    1
     2    30    41    1
     3    30    31    1
     4    31    34    1
     5    31    32    1
     6    32    35    1
     7    32    33    1
     8    33    36    1
     9    33    44    1
    10    39    40    1
    11    39    42    2
    12    39    41   am
    13    41    43    1
    14    29    28    1
    15    34    37    1
    16    35    38    1
    17    29    36    1
    18    44    45    1
    19    45    46    1
    20    15     6    1
    21    15    16   ar
    22    16    21    2
    23    16    17   ar
    24    17    23    1
    25    17    18   ar
    26    18    19   ar
    27    19    20   ar
    28    15    20   ar
    29    18    22    2
    30     6     7    1
    31     6    11    1
    32     7     9    1
    33     7     8    1
    34     8    13    1
    35     9    10    1
    36     9    12    1
    37    10     5    1
    38    10    11    1
    39    12    14    1
    40     5     4    1
    41     4     1    1
    42     1     2    1
    43     1    24    1
    44     1     3    2
    45    24    25    1
    46    28    25    1
    47    25    26    1
    48    25    27    2
@<TRIPOS>MOLECULE
UD2
 46 48 0 0 0
SMALL
GASTEIGER

@<TRIPOS>ATOM
      1 P          23.0240   71.4172   -2.3705 P.3     1  UNL1        0.2189
      2 O          22.8906   72.9753   -2.7524 O.3     1  UNL1       -0.4371
      3 O          24.1142   70.8061   -3.1623 O.2     1  UNL1       -0.5170
      4 O          23.3564   71.2761   -0.8010 O.3     1  UNL1       -0.3112
      5 C          22.3436   71.1821    0.2025 C.3     1  UNL1        0.1811
      6 C          24.4097   73.0447    2.4825 C.3     1  UNL1        0.2383
      7 C          24.3606   73.9153    1.2011 C.3     1  UNL1        0.1895
      8 O          24.4621   75.3036    1.5235 O.3     1  UNL1       -0.3779
      9 C          22.9590   73.5809    0.6343 C.3     1  UNL1        0.1713
     10 C          22.6012   72.2317    1.2864 C.3     1  UNL1        0.1764
     11 O          23.7217   71.8361    2.0935 O.3     1  UNL1       -0.3308
     12 O          22.0157   74.5851    1.0117 O.3     1  UNL1       -0.3794
     13 H          24.4367   75.8891    0.7546 H       1  UNL1        0.2106
     14 H          22.2246   75.4677    0.6772 H       1  UNL1        0.2105
     15 N          25.7958   72.7528    2.8549 N.ar    1  UNL1       -0.2551
     16 C          26.4737   73.6174    3.6306 C.ar    1  UNL1        0.3323
     17 N          27.7486   73.3747    3.9881 N.ar    1  UNL1       -0.2743
     18 C          28.3682   72.2516    3.5718 C.ar    1  UNL1        0.2626
     19 C          27.6662   71.3322    2.7556 C.ar    1  UNL1        0.0795
     20 C          26.3876   71.5990    2.4160 C.ar    1  UNL1        0.0869
     21 O          25.9275   74.6340    4.0135 O.2     1  UNL1       -0.2464
     22 O          29.5220   72.0306    3.8950 O.2     1  UNL1       -0.2670
     23 H          28.2232   74.0093    4.5469 H       1  UNL1        0.1734
     24 O          21.6379   70.6643   -2.6946 O.3     1  UNL1       -0.2703
     25 P          20.0870   71.0859   -2.5952 P.3     1  UNL1        0.2208
     26 O          19.3822   70.2605   -1.4053 O.3     1  UNL1       -0.4371
     27 O          19.9863   72.5351   -2.3163 O.2     1  UNL1       -0.5170
     28 O          19.3505   70.7546   -3.9882 O.3     1  UNL1       -0.2865
     29 C          18.7566   71.7588   -4.8129 C.3     1  UNL1        0.2611
     30 C          17.3466   71.3208   -5.2165 C.3     1  UNL1        0.1582
     31 C          17.4380   70.0344   -6.0430 C.3     1  UNL1        0.1625
     32 C          18.3383   70.2827   -7.2564 C.3     1  UNL1        0.1686
     33 C          19.7104   70.7608   -6.7739 C.3     1  UNL1        0.1760
     34 O          16.1321   69.6582   -6.4863 O.3     1  UNL1       -0.3801
     35 O          17.7500   71.2820   -8.0910 O.3     1  UNL1       -0.3794
     36 O          19.5514   71.9425   -5.9862 O.3     1  UNL1       -0.3263
     37 H          16.1148   68.8495   -7.0162 H       1  UNL1        0.2105
     38 H          18.2685   71.4910   -8.8807 H       1  UNL1        0.2105
     39 C          16.4577   69.8282   -3.5078 C.2     1  UNL1        0.2231
     40 C          15.6367   69.5738   -2.2709 C.3     1  UNL1        0.0946
     41 N          16.5477   71.0741   -4.0134 N.am    1  UNL1       -0.2994
     42 O          17.0385   68.9111   -4.0498 O.2     1  UNL1       -0.2751
     43 H          16.0827   71.8075   -3.5810 H       1  UNL1        0.1496
     44 C          20.5968   71.0684   -7.9823 C.3     1  UNL1        0.1693
     45 O          20.7570   72.4828   -8.1087 O.3     1  UNL1       -0.3794
     46 H          21.3089   72.7515   -8.8559 H       1  UNL1        0.2105
@<TRIPOS>BOND
     1    29    30    1
     2    30    41    1
     3    30    31    1
     4    31    34    1
     5    31    32    1
     6    32    35    1
     7    32    33    1
     8    33    36    1
     9    33    44    1
    10    39    40    1
    11    39    42    2
    12    39    41   am
    13    41    43    1
    14    29    28    1
    15    34    37    1
    16    35    38    1
    17    29    36    1
    18    44    45    1
    19    45    46    1
    20    15     6    1
    21    15    16   ar
    22    16    21    2
    23    16    17   ar
    24    17    23    1
    25    17    18   ar
    26    18    19   ar
    27    19    20   ar
    28    15    20   ar
    29    18    22    2
    30     6     7    1
    31     6    11    1
    32     7     9    1
    33     7     8    1
    34     8    13    1
    35     9    10    1
    36     9    12    1
    37    10     5    1
    38    10    11    1
    39    12    14    1
    40     5     4    1
    41     4     1    1
    42     1     2    1
    43     1    24    1
    44     1     3    2
    45    24    25    1
    46    28    25    1
    47    25    26    1
    48    25    27    2
@<TRIPOS>MOLECULE
UD2
 46 48 0 0 0
SMALL
GASTEIGER

@<TRIPOS>ATOM
      1 P          19.6267   72.8718   -1.1027 P.3     1  UNL1        0.2189
      2 O          20.6185   74.1018   -1.4103 O.3     1  UNL1       -0.4371
      3 O          18.3322   73.3922   -0.6106 O.2     1  UNL1       -0.5170
      4 O          19.3871   72.0255   -2.4519 O.3     1  UNL1       -0.3112
      5 C          18.7827   70.7309   -2.4602 C.3     1  UNL1        0.1811
      6 C          17.0713   70.5185   -5.6166 C.3     1  UNL1        0.2383
      7 C          17.0311   69.0751   -5.0536 C.3     1  UNL1        0.1895
      8 O          15.8545   68.3907   -5.4882 O.3     1  UNL1       -0.3779
      9 C          16.9934   69.3228   -3.5257 C.3     1  UNL1        0.1713
     10 C          17.5461   70.7516   -3.3621 C.3     1  UNL1        0.1764
     11 O          17.9034   71.2245   -4.6706 O.3     1  UNL1       -0.3308
     12 O          15.6518   69.2465   -3.0409 O.3     1  UNL1       -0.3794
     13 H          15.7840   67.4832   -5.1624 H       1  UNL1        0.2106
     14 H          15.2337   68.3849   -3.1721 H       1  UNL1        0.2105
     15 N          17.6769   70.5354   -6.9500 N.ar    1  UNL1       -0.2551
     16 C          16.8922   70.4545   -8.0394 C.ar    1  UNL1        0.3323
     17 N          17.4216   70.4676   -9.2770 N.ar    1  UNL1       -0.2743
     18 C          18.7563   70.5646   -9.4433 C.ar    1  UNL1        0.2626
     19 C          19.5941   70.6515   -8.3055 C.ar    1  UNL1        0.0795
     20 C          19.0359   70.6404   -7.0767 C.ar    1  UNL1        0.0869
     21 O          15.6870   70.3668   -7.9044 O.2     1  UNL1       -0.2464
     22 O          19.2367   70.5769  -10.5630 O.2     1  UNL1       -0.2670
     23 H          16.8415   70.4071  -10.0516 H       1  UNL1        0.1734
     24 O          20.2836   71.9196    0.0176 O.3     1  UNL1       -0.2703
     25 P          21.7638   71.3329    0.2580 P.3     1  UNL1        0.2208
     26 O          21.6691   69.9752    1.1191 O.3     1  UNL1       -0.4371
     27 O          22.3987   71.0454   -1.0469 O.2     1  UNL1       -0.5170
     28 O          22.6468   72.4159    1.0580 O.3     1  UNL1       -0.2865
     29 C          22.7700   72.4213    2.4814 C.3     1  UNL1        0.2611
     30 C          22.5177   73.8351    3.0109 C.3     1  UNL1        0.1582
     31 C          23.5843   74.7797    2.4482 C.3     1  UNL1        0.1625
     32 C          24.9701   74.2545    2.8327 C.3     1  UNL1        0.1686
     33 C          25.1279   72.8242    2.3098 C.3     1  UNL1        0.1760
     34 O          23.4003   76.0873    2.9954 O.3     1  UNL1       -0.3801
     35 O          25.1058   74.2613    4.2550 O.3     1  UNL1       -0.3794
     36 O          24.0874   72.0050    2.8467 O.3     1  UNL1       -0.3263
     37 H          24.0422   76.7387    2.6810 H       1  UNL1        0.2105
     38 H          25.9618   73.9394    4.5707 H       1  UNL1        0.2105
     39 C          20.1930   74.3889    3.4871 C.2     1  UNL1        0.2231
     40 C          18.8281   74.8536    3.0516 C.3     1  UNL1        0.0946
     41 N          21.1903   74.2869    2.5865 N.am    1  UNL1       -0.2994
     42 O          20.3954   74.1059    4.6496 O.2     1  UNL1       -0.2751
     43 H          21.0287   74.5121    1.6568 H       1  UNL1        0.1496
     44 C          26.4873   72.2708    2.7414 C.3     1  UNL1        0.1693
     45 O          26.5181   70.8586    2.5244 O.3     1  UNL1       -0.3794
     46 H          27.3523   70.4394    2.7765 H       1  UNL1        0.2105
@<TRIPOS>BOND
     1    29    30    1
     2    30    41    1
     3    30    31    1
     4    31    34    1
     5    31    32    1
     6    32    35    1
     7    32    33    1
     8    33    36    1
     9    33    44    1
    10    39    40    1
    11    39    42    2
    12    39    41   am
    13    41    43    1
    14    29    28    1
    15    34    37    1
    16    35    38    1
    17    29    36    1
    18    44    45    1
    19    45    46    1
    20    15     6    1
    21    15    16   ar
    22    16    21    2
    23    16    17   ar
    24    17    23    1
    25    17    18   ar
    26    18    19   ar
    27    19    20   ar
    28    15    20   ar
    29    18    22    2
    30     6     7    1
    31     6    11    1
    32     7     9    1
    33     7     8    1
    34     8    13    1
    35     9    10    1
    36     9    12    1
    37    10     5    1
    38    10    11    1
    39    12    14    1
    40     5     4    1
    41     4     1    1
    42     1     2    1
    43     1    24    1
    44     1     3    2
    45    24    25    1
    46    28    25    1
    47    25    26    1
    48    25    27    2
@<TRIPOS>MOLECULE
UD2
 46 48 0 0 0
SMALL
GASTEIGER

@<TRIPOS>ATOM
      1 P          16.5531   69.6818   -2.9042 P.3     1  UNL1        0.2189
      2 O          17.3445   70.6899   -1.9301 O.3     1  UNL1       -0.4371
      3 O          17.3610   68.4599   -3.1122 O.2     1  UNL1       -0.5170
      4 O          15.1429   69.2854   -2.2349 O.3     1  UNL1       -0.3112
      5 C          14.9776   69.0893   -0.8293 C.3     1  UNL1        0.1811
      6 C          12.1693   68.0268    1.1509 C.3     1  UNL1        0.2383
      7 C          12.4973   69.4493    1.6714 C.3     1  UNL1        0.1895
      8 O          11.3165   70.1082    2.1335 O.3     1  UNL1       -0.3779
      9 C          13.0543   70.1397    0.4024 C.3     1  UNL1        0.1713
     10 C          13.4868   68.9707   -0.5031 C.3     1  UNL1        0.1764
     11 O          13.2401   67.7548    0.2209 O.3     1  UNL1       -0.3308
     12 O          12.0354   70.9141   -0.2323 O.3     1  UNL1       -0.3794
     13 H          11.4703   71.0015    2.4697 H       1  UNL1        0.2106
     14 H          11.6843   71.6286    0.3161 H       1  UNL1        0.2105
     15 N          12.1822   67.0595    2.2505 N.ar    1  UNL1       -0.2551
     16 C          13.3561   66.6145    2.7329 C.ar    1  UNL1        0.3323
     17 N          13.3979   65.7253    3.7427 N.ar    1  UNL1       -0.2743
     18 C          12.2543   65.2660    4.2903 C.ar    1  UNL1        0.2626
     19 C          11.0115   65.7267    3.7930 C.ar    1  UNL1        0.0795
     20 C          10.9994   66.6215    2.7827 C.ar    1  UNL1        0.0869
     21 O          14.3952   67.0202    2.2489 O.2     1  UNL1       -0.2464
     22 O          12.2907   64.4616    5.2046 O.2     1  UNL1       -0.2670
     23 H          14.2528   65.4140    4.0777 H       1  UNL1        0.1734
     24 O          16.2907   70.3998   -4.3215 O.3     1  UNL1       -0.2703
     25 P          16.5632   71.8809   -4.8918 P.3     1  UNL1        0.2208
     26 O          15.6884   72.1118   -6.2241 O.3     1  UNL1       -0.4371
     27 O          16.1801   72.8810   -3.8713 O.2     1  UNL1       -0.5170
     28 O          18.1268   72.0420   -5.2413 O.3     1  UNL1       -0.2865
     29 C          19.0151   70.9300   -5.3663 C.3     1  UNL1        0.2611
     30 C          20.4616   71.4150   -5.2441 C.3     1  UNL1        0.1582
     31 C          20.7649   72.3838   -6.3911 C.3     1  UNL1        0.1625
     32 C          20.4998   71.6788   -7.7242 C.3     1  UNL1        0.1686
     33 C          19.0513   71.1836   -7.7509 C.3     1  UNL1        0.1760
     34 O          22.1354   72.7849   -6.3273 O.3     1  UNL1       -0.3801
     35 O          21.3875   70.5678   -7.8618 O.3     1  UNL1       -0.3794
     36 O          18.8272   70.3118   -6.6410 O.3     1  UNL1       -0.3263
     37 H          22.3974   73.4009   -7.0252 H       1  UNL1        0.2105
     38 H          21.2748   70.0730   -8.6855 H       1  UNL1        0.2105
     39 C          21.3052   71.4952   -2.9594 C.2     1  UNL1        0.2231
     40 C          21.4900   72.2009   -1.6417 C.3     1  UNL1        0.0946
     41 N          20.6407   72.1020   -3.9625 N.am    1  UNL1       -0.2994
     42 O          21.7548   70.3795   -3.1184 O.2     1  UNL1       -0.2751
     43 H          20.2802   72.9936   -3.8355 H       1  UNL1        0.1496
     44 C          18.7957   70.4257   -9.0550 C.3     1  UNL1        0.1693
     45 O          18.3477   71.3398  -10.0580 O.3     1  UNL1       -0.3794
     46 H          18.1656   70.9275  -10.9135 H       1  UNL1        0.2105
@<TRIPOS>BOND
     1    29    30    1
     2    30    41    1
     3    30    31    1
     4    31    34    1
     5    31    32    1
     6    32    35    1
     7    32    33    1
     8    33    36    1
     9    33    44    1
    10    39    40    1
    11    39    42    2
    12    39    41   am
    13    41    43    1
    14    29    28    1
    15    34    37    1
    16    35    38    1
    17    29    36    1
    18    44    45    1
    19    45    46    1
    20    15     6    1
    21    15    16   ar
    22    16    21    2
    23    16    17   ar
    24    17    23    1
    25    17    18   ar
    26    18    19   ar
    27    19    20   ar
    28    15    20   ar
    29    18    22    2
    30     6     7    1
    31     6    11    1
    32     7     9    1
    33     7     8    1
    34     8    13    1
    35     9    10    1
    36     9    12    1
    37    10     5    1
    38    10    11    1
    39    12    14    1
    40     5     4    1
    41     4     1    1
    42     1     2    1
    43     1    24    1
    44     1     3    2
    45    24    25    1
    46    28    25    1
    47    25    26    1
    48    25    27    2
@<TRIPOS>MOLECULE
UD2
 46 48 0 0 0
SMALL
GASTEIGER

@<TRIPOS>ATOM
      1 P          15.9801   71.3846   -3.2496 P.3     1  UNL1        0.2189
      2 O          16.1186   69.8784   -3.8005 O.3     1  UNL1       -0.4371
      3 O          15.6151   72.2865   -4.3642 O.2     1  UNL1       -0.5170
      4 O          14.8352   71.4389   -2.1183 O.3     1  UNL1       -0.3112
      5 C          14.8351   70.5871   -0.9711 C.3     1  UNL1        0.1811
      6 C          12.6291   68.0395    0.2856 C.3     1  UNL1        0.2383
      7 C          11.8782   69.3695    0.5486 C.3     1  UNL1        0.1895
      8 O          10.4636   69.1777    0.4861 O.3     1  UNL1       -0.3779
      9 C          12.3677   70.2565   -0.6224 C.3     1  UNL1        0.1713
     10 C          13.6795   69.5890   -1.0775 C.3     1  UNL1        0.1764
     11 O          13.9164   68.4724   -0.2054 O.3     1  UNL1       -0.3308
     12 O          11.4109   70.2547   -1.6832 O.3     1  UNL1       -0.3794
     13 H           9.9501   69.9813    0.6447 H       1  UNL1        0.2106
     14 H          10.5468   70.6101   -1.4352 H       1  UNL1        0.2105
     15 N          12.7796   67.2778    1.5274 N.ar    1  UNL1       -0.2551
     16 C          12.2892   66.0280    1.6063 C.ar    1  UNL1        0.3323
     17 N          12.4131   65.3050    2.7351 N.ar    1  UNL1       -0.2743
     18 C          13.0372   65.8273    3.8104 C.ar    1  UNL1        0.2626
     19 C          13.5591   67.1414    3.7411 C.ar    1  UNL1        0.0795
     20 C          13.4243   67.8418    2.5953 C.ar    1  UNL1        0.0869
     21 O          11.7243   65.5443    0.6443 O.2     1  UNL1       -0.2464
     22 O          13.1503   65.1739    4.8326 O.2     1  UNL1       -0.2670
     23 H          12.0526   64.4058    2.7753 H       1  UNL1        0.1734
     24 O          17.3833   71.8555   -2.6151 O.3     1  UNL1       -0.2703
     25 P          18.9036   71.3455   -2.7617 P.3     1  UNL1        0.2208
     26 O          19.8215   72.0711   -1.6550 O.3     1  UNL1       -0.4371
     27 O          18.9544   69.8808   -2.5605 O.2     1  UNL1       -0.5170
     28 O          19.4507   71.7049   -4.2328 O.3     1  UNL1       -0.2865
     29 C          20.5857   71.0651   -4.8190 C.3     1  UNL1        0.2611
     30 C          21.6487   72.1146   -5.1525 C.3     1  UNL1        0.1582
     31 C          21.0813   73.0932   -6.1854 C.3     1  UNL1        0.1625
     32 C          20.6312   72.3097   -7.4216 C.3     1  UNL1        0.1686
     33 C          19.6071   71.2524   -7.0005 C.3     1  UNL1        0.1760
     34 O          22.0917   74.0333   -6.5575 O.3     1  UNL1       -0.3801
     35 O          21.7606   71.6703   -8.0191 O.3     1  UNL1       -0.3794
     36 O          20.1880   70.3942   -6.0166 O.3     1  UNL1       -0.3263
     37 H          21.8007   74.6852   -7.2098 H       1  UNL1        0.2105
     38 H          21.5486   71.1539   -8.8093 H       1  UNL1        0.2105
     39 C          23.2965   72.8648   -3.5217 C.2     1  UNL1        0.2231
     40 C          23.6733   73.6150   -2.2711 C.3     1  UNL1        0.0946
     41 N          22.0143   72.8444   -3.9358 N.am    1  UNL1       -0.2994
     42 O          24.1477   72.2781   -4.1570 O.2     1  UNL1       -0.2751
     43 H          21.3333   73.3125   -3.4277 H       1  UNL1        0.1496
     44 C          19.1970   70.4257   -8.2206 C.3     1  UNL1        0.1693
     45 O          19.1888   71.2597   -9.3812 O.3     1  UNL1       -0.3794
     46 H          18.9370   70.8007  -10.1942 H       1  UNL1        0.2105
@<TRIPOS>BOND
     1    29    30    1
     2    30    41    1
     3    30    31    1
     4    31    34    1
     5    31    32    1
     6    32    35    1
     7    32    33    1
     8    33    36    1
     9    33    44    1
    10    39    40    1
    11    39    42    2
    12    39    41   am
    13    41    43    1
    14    29    28    1
    15    34    37    1
    16    35    38    1
    17    29    36    1
    18    44    45    1
    19    45    46    1
    20    15     6    1
    21    15    16   ar
    22    16    21    2
    23    16    17   ar
    24    17    23    1
    25    17    18   ar
    26    18    19   ar
    27    19    20   ar
    28    15    20   ar
    29    18    22    2
    30     6     7    1
    31     6    11    1
    32     7     9    1
    33     7     8    1
    34     8    13    1
    35     9    10    1
    36     9    12    1
    37    10     5    1
    38    10    11    1
    39    12    14    1
    40     5     4    1
    41     4     1    1
    42     1     2    1
    43     1    24    1
    44     1     3    2
    45    24    25    1
    46    28    25    1
    47    25    26    1
    48    25    27    2
@<TRIPOS>MOLECULE
UD2
 46 48 0 0 0
SMALL
GASTEIGER

@<TRIPOS>ATOM
      1 P          21.8188   73.2596   -6.6407 P.3     1  UNL1        0.2189
      2 O          21.3857   73.7750   -5.1785 O.3     1  UNL1       -0.4371
      3 O          22.9914   72.3652   -6.5220 O.2     1  UNL1       -0.5170
      4 O          20.5951   72.4542   -7.3099 O.3     1  UNL1       -0.3112
      5 C          20.7769   71.4760   -8.3353 C.3     1  UNL1        0.1811
      6 C          17.7669   70.0565   -6.9708 C.3     1  UNL1        0.2383
      7 C          17.2725   71.0727   -8.0315 C.3     1  UNL1        0.1895
      8 O          16.0383   70.6452   -8.6111 O.3     1  UNL1       -0.3779
      9 C          18.4153   71.0350   -9.0756 C.3     1  UNL1        0.1713
     10 C          19.6198   70.4747   -8.2953 C.3     1  UNL1        0.1764
     11 O          19.1943   70.2735   -6.9381 O.3     1  UNL1       -0.3308
     12 O          18.0734   70.1683  -10.1585 O.3     1  UNL1       -0.3794
     13 H          15.6880   71.2485   -9.2804 H       1  UNL1        0.2106
     14 H          17.2862   70.4416  -10.6485 H       1  UNL1        0.2105
     15 N          17.1710   70.3438   -5.6642 N.ar    1  UNL1       -0.2551
     16 C          16.4647   69.3910   -5.0299 C.ar    1  UNL1        0.3323
     17 N          15.9058   69.6274   -3.8282 N.ar    1  UNL1       -0.2743
     18 C          16.0488   70.8315   -3.2382 C.ar    1  UNL1        0.2626
     19 C          16.7906   71.8433   -3.8941 C.ar    1  UNL1        0.0795
     20 C          17.3435   71.5773   -5.0962 C.ar    1  UNL1        0.0869
     21 O          16.3277   68.3006   -5.5500 O.2     1  UNL1       -0.2464
     22 O          15.5438   71.0466   -2.1504 O.2     1  UNL1       -0.2670
     23 H          15.3987   68.9297   -3.3852 H       1  UNL1        0.1734
     24 O          22.1982   74.5227   -7.5648 O.3     1  UNL1       -0.2703
     25 P          23.1784   75.7871   -7.3821 P.3     1  UNL1        0.2208
     26 O          22.3045   77.1009   -7.0600 O.3     1  UNL1       -0.4371
     27 O          24.1123   75.5302   -6.2640 O.2     1  UNL1       -0.5170
     28 O          24.0150   76.0178   -8.7384 O.3     1  UNL1       -0.2865
     29 C          24.8338   75.0071   -9.3295 C.3     1  UNL1        0.2611
     30 C          26.2771   75.5079   -9.4224 C.3     1  UNL1        0.1582
     31 C          26.3242   76.7372  -10.3350 C.3     1  UNL1        0.1625
     32 C          25.7496   76.3651  -11.7047 C.3     1  UNL1        0.1686
     33 C          24.3262   75.8312  -11.5238 C.3     1  UNL1        0.1760
     34 O          27.6788   77.1676  -10.4863 O.3     1  UNL1       -0.3801
     35 O          26.5650   75.3584  -12.3072 O.3     1  UNL1       -0.3794
     36 O          24.3491   74.7083  -10.6403 O.3     1  UNL1       -0.3263
     37 H          27.7833   77.9445  -11.0527 H       1  UNL1        0.2105
     38 H          26.2587   75.0733  -13.1795 H       1  UNL1        0.2105
     39 C          26.6676   77.1477   -7.6628 C.2     1  UNL1        0.2231
     40 C          27.1593   77.5222   -6.2892 C.3     1  UNL1        0.0946
     41 N          26.7558   75.8714   -8.0862 N.am    1  UNL1       -0.2994
     42 O          26.1918   77.9954   -8.3889 O.2     1  UNL1       -0.2751
     43 H          27.1371   75.1936   -7.5064 H       1  UNL1        0.1496
     44 C          23.7667   75.4013  -12.8812 C.3     1  UNL1        0.1693
     45 O          24.4115   76.1421  -13.9193 O.3     1  UNL1       -0.3794
     46 H          24.1054   75.9210  -14.8095 H       1  UNL1        0.2105
@<TRIPOS>BOND
     1    29    30    1
     2    30    41    1
     3    30    31    1
     4    31    34    1
     5    31    32    1
     6    32    35    1
     7    32    33    1
     8    33    36    1
     9    33    44    1
    10    39    40    1
    11    39    42    2
    12    39    41   am
    13    41    43    1
    14    29    28    1
    15    34    37    1
    16    35    38    1
    17    29    36    1
    18    44    45    1
    19    45    46    1
    20    15     6    1
    21    15    16   ar
    22    16    21    2
    23    16    17   ar
    24    17    23    1
    25    17    18   ar
    26    18    19   ar
    27    19    20   ar
    28    15    20   ar
    29    18    22    2
    30     6     7    1
    31     6    11    1
    32     7     9    1
    33     7     8    1
    34     8    13    1
    35     9    10    1
    36     9    12    1
    37    10     5    1
    38    10    11    1
    39    12    14    1
    40     5     4    1
    41     4     1    1
    42     1     2    1
    43     1    24    1
    44     1     3    2
    45    24    25    1
    46    28    25    1
    47    25    26    1
    48    25    27    2
@<TRIPOS>MOLECULE
UD2
 46 48 0 0 0
SMALL
GASTEIGER

@<TRIPOS>ATOM
      1 P          22.8628   72.1796   -3.4269 P.3     1  UNL1        0.2189
      2 O          24.0707   72.4450   -4.4574 O.3     1  UNL1       -0.4371
      3 O          23.2202   71.0635   -2.5238 O.2     1  UNL1       -0.5170
      4 O          22.5972   73.5092   -2.5578 O.3     1  UNL1       -0.3112
      5 C          22.0245   73.4808   -1.2491 C.3     1  UNL1        0.1811
      6 C          24.1045   72.0815    1.3301 C.3     1  UNL1        0.2383
      7 C          22.7060   72.2119    1.9852 C.3     1  UNL1        0.1895
      8 O          22.5034   71.1899    2.9630 O.3     1  UNL1       -0.3779
      9 C          21.7602   72.0141    0.7753 C.3     1  UNL1        0.1713
     10 C          22.6417   72.3321   -0.4475 C.3     1  UNL1        0.1764
     11 O          23.9341   72.7194    0.0457 O.3     1  UNL1       -0.3308
     12 O          21.2961   70.6642    0.7204 O.3     1  UNL1       -0.3794
     13 H          21.6427   71.2297    3.4015 H       1  UNL1        0.2106
     14 H          20.7845   70.3916    1.4940 H       1  UNL1        0.2105
     15 N          25.1142   72.7836    2.1254 N.ar    1  UNL1       -0.2551
     16 C          26.2082   72.1239    2.5461 C.ar    1  UNL1        0.3323
     17 N          27.1522   72.7440    3.2786 N.ar    1  UNL1       -0.2743
     18 C          27.0140   74.0460    3.6018 C.ar    1  UNL1        0.2626
     19 C          25.8680   74.7528    3.1647 C.ar    1  UNL1        0.0795
     20 C          24.9395   74.1072    2.4281 C.ar    1  UNL1        0.0869
     21 O          26.3460   70.9498    2.2619 O.2     1  UNL1       -0.2464
     22 O          27.8679   74.6085    4.2644 O.2     1  UNL1       -0.2670
     23 H          27.9342   72.2533    3.5748 H       1  UNL1        0.1734
     24 O          21.5301   71.8007   -4.2476 O.3     1  UNL1       -0.2703
     25 P          20.0307   71.3982   -3.8203 P.3     1  UNL1        0.2208
     26 O          20.0828   70.2000   -2.7455 O.3     1  UNL1       -0.4371
     27 O          19.3573   72.5703   -3.2193 O.2     1  UNL1       -0.5170
     28 O          19.2128   70.9175   -5.1213 O.3     1  UNL1       -0.2865
     29 C          18.2012   71.7126   -5.7426 C.3     1  UNL1        0.2611
     30 C          16.8455   71.0161   -5.6022 C.3     1  UNL1        0.1582
     31 C          16.8941   69.6709   -6.3332 C.3     1  UNL1        0.1625
     32 C          17.2746   69.9108   -7.7968 C.3     1  UNL1        0.1686
     33 C          18.6141   70.6500   -7.8526 C.3     1  UNL1        0.1760
     34 O          15.6098   69.0466   -6.2698 O.3     1  UNL1       -0.3801
     35 O          16.2659   70.7007   -8.4292 O.3     1  UNL1       -0.3794
     36 O          18.5096   71.8774   -7.1283 O.3     1  UNL1       -0.3263
     37 H          15.5679   68.1881   -6.7129 H       1  UNL1        0.2105
     38 H          16.4423   70.8928   -9.3608 H       1  UNL1        0.2105
     39 C          16.8554   69.6093   -3.6126 C.2     1  UNL1        0.2231
     40 C          16.5573   69.3785   -2.1544 C.3     1  UNL1        0.0946
     41 N          16.5550   70.7923   -4.1837 N.am    1  UNL1       -0.2994
     42 O          17.3664   68.7297   -4.2740 O.2     1  UNL1       -0.2751
     43 H          16.1455   71.4955   -3.6555 H       1  UNL1        0.1496
     44 C          18.9724   70.9465   -9.3101 C.3     1  UNL1        0.1693
     45 O          18.2246   70.0843  -10.1701 O.3     1  UNL1       -0.3794
     46 H          18.4016   70.2168  -11.1114 H       1  UNL1        0.2105
@<TRIPOS>BOND
     1    29    30    1
     2    30    41    1
     3    30    31    1
     4    31    34    1
     5    31    32    1
     6    32    35    1
     7    32    33    1
     8    33    36    1
     9    33    44    1
    10    39    40    1
    11    39    42    2
    12    39    41   am
    13    41    43    1
    14    29    28    1
    15    34    37    1
    16    35    38    1
    17    29    36    1
    18    44    45    1
    19    45    46    1
    20    15     6    1
    21    15    16   ar
    22    16    21    2
    23    16    17   ar
    24    17    23    1
    25    17    18   ar
    26    18    19   ar
    27    19    20   ar
    28    15    20   ar
    29    18    22    2
    30     6     7    1
    31     6    11    1
    32     7     9    1
    33     7     8    1
    34     8    13    1
    35     9    10    1
    36     9    12    1
    37    10     5    1
    38    10    11    1
    39    12    14    1
    40     5     4    1
    41     4     1    1
    42     1     2    1
    43     1    24    1
    44     1     3    2
    45    24    25    1
    46    28    25    1
    47    25    26    1
    48    25    27    2
@<TRIPOS>MOLECULE
UD2
 46 48 0 0 0
SMALL
GASTEIGER

@<TRIPOS>ATOM
      1 P          15.5064   71.3442   -1.8686 P.3     1  UNL1        0.2189
      2 O          14.3431   72.0086   -2.7612 O.3     1  UNL1       -0.4371
      3 O          16.5698   72.3424   -1.6206 O.2     1  UNL1       -0.5170
      4 O          14.8908   70.8551   -0.4630 O.3     1  UNL1       -0.3112
      5 C          14.2975   69.5683   -0.2801 C.3     1  UNL1        0.1811
      6 C          10.8595   68.5251   -0.4482 C.3     1  UNL1        0.2383
      7 C          11.3517   68.0239    0.9333 C.3     1  UNL1        0.1895
      8 O          10.2827   68.0098    1.8813 O.3     1  UNL1       -0.3779
      9 C          12.4089   69.0911    1.3087 C.3     1  UNL1        0.1713
     10 C          12.7946   69.7296   -0.0393 C.3     1  UNL1        0.1764
     11 O          12.0589   69.0426   -1.0641 O.3     1  UNL1       -0.3308
     12 O          11.8419   70.0693    2.1820 O.3     1  UNL1       -0.3794
     13 H          10.5408   67.7030    2.7610 H       1  UNL1        0.2106
     14 H          11.5275   69.7117    3.0232 H       1  UNL1        0.2105
     15 N          10.3125   67.4168   -1.2340 N.ar    1  UNL1       -0.2551
     16 C          10.7611   66.1664   -1.0247 C.ar    1  UNL1        0.3323
     17 N          10.2764   65.1289   -1.7325 N.ar    1  UNL1       -0.2743
     18 C           9.3254   65.3302   -2.6673 C.ar    1  UNL1        0.2626
     19 C           8.8433   66.6412   -2.8972 C.ar    1  UNL1        0.0795
     20 C           9.3441   67.6620   -2.1701 C.ar    1  UNL1        0.0869
     21 O          11.6182   65.9700   -0.1850 O.2     1  UNL1       -0.2464
     22 O           8.8856   64.3920   -3.3082 O.2     1  UNL1       -0.2670
     23 H          10.6118   64.2338   -1.5698 H       1  UNL1        0.1734
     24 O          16.1275   70.0807   -2.6503 O.3     1  UNL1       -0.2703
     25 P          17.6139   69.6777   -3.1206 P.3     1  UNL1        0.2208
     26 O          18.6308   69.8409   -1.8824 O.3     1  UNL1       -0.4371
     27 O          17.6215   68.2723   -3.5823 O.2     1  UNL1       -0.5170
     28 O          18.0754   70.6413   -4.3252 O.3     1  UNL1       -0.2865
     29 C          19.1616   70.3293   -5.1993 C.3     1  UNL1        0.2611
     30 C          20.2337   71.4161   -5.0906 C.3     1  UNL1        0.1582
     31 C          19.6407   72.7535   -5.5448 C.3     1  UNL1        0.1625
     32 C          19.1076   72.6047   -6.9724 C.3     1  UNL1        0.1686
     33 C          18.0785   71.4717   -7.0085 C.3     1  UNL1        0.1760
     34 O          20.6555   73.7597   -5.5163 O.3     1  UNL1       -0.3801
     35 O          20.1876   72.2980   -7.8560 O.3     1  UNL1       -0.3794
     36 O          18.6857   70.2640   -6.5453 O.3     1  UNL1       -0.3263
     37 H          20.3492   74.6346   -5.7919 H       1  UNL1        0.2105
     38 H          19.9220   72.1889   -8.7799 H       1  UNL1        0.2105
     39 C          21.9882   71.6941   -3.4226 C.2     1  UNL1        0.2231
     40 C          22.4480   71.8071   -1.9928 C.3     1  UNL1        0.0946
     41 N          20.6802   71.5257   -3.6995 N.am    1  UNL1       -0.2994
     42 O          22.7958   71.7547   -4.3262 O.2     1  UNL1       -0.2751
     43 H          20.0343   71.4762   -2.9773 H       1  UNL1        0.1496
     44 C          17.5849   71.2770   -8.4434 C.3     1  UNL1        0.1693
     45 O          16.2716   70.7138   -8.4238 O.3     1  UNL1       -0.3794
     46 H          15.8948   70.5625   -9.3014 H       1  UNL1        0.2105
@<TRIPOS>BOND
     1    29    30    1
     2    30    41    1
     3    30    31    1
     4    31    34    1
     5    31    32    1
     6    32    35    1
     7    32    33    1
     8    33    36    1
     9    33    44    1
    10    39    40    1
    11    39    42    2
    12    39    41   am
    13    41    43    1
    14    29    28    1
    15    34    37    1
    16    35    38    1
    17    29    36    1
    18    44    45    1
    19    45    46    1
    20    15     6    1
    21    15    16   ar
    22    16    21    2
    23    16    17   ar
    24    17    23    1
    25    17    18   ar
    26    18    19   ar
    27    19    20   ar
    28    15    20   ar
    29    18    22    2
    30     6     7    1
    31     6    11    1
    32     7     9    1
    33     7     8    1
    34     8    13    1
    35     9    10    1
    36     9    12    1
    37    10     5    1
    38    10    11    1
    39    12    14    1
    40     5     4    1
    41     4     1    1
    42     1     2    1
    43     1    24    1
    44     1     3    2
    45    24    25    1
    46    28    25    1
    47    25    26    1
    48    25    27    2
@<TRIPOS>MOLECULE
UD2
 46 48 0 0 0
SMALL
GASTEIGER

@<TRIPOS>ATOM
      1 P          15.9923   71.2887   -2.6932 P.3     1  UNL1        0.2189
      2 O          14.7631   72.0667   -3.3826 O.3     1  UNL1       -0.4371
      3 O          16.3554   71.9623   -1.4270 O.2     1  UNL1       -0.5170
      4 O          15.5606   69.7676   -2.3873 O.3     1  UNL1       -0.3112
      5 C          15.3190   69.2789   -1.0666 C.3     1  UNL1        0.1811
      6 C          12.3813   68.2810    0.7528 C.3     1  UNL1        0.2383
      7 C          12.7222   69.6884    1.3049 C.3     1  UNL1        0.1895
      8 O          11.5383   70.3773    1.7117 O.3     1  UNL1       -0.3779
      9 C          13.3647   70.3738    0.0741 C.3     1  UNL1        0.1713
     10 C          13.8104   69.2010   -0.8200 C.3     1  UNL1        0.1764
     11 O          13.4912   67.9863   -0.1229 O.3     1  UNL1       -0.3308
     12 O          12.4032   71.1835   -0.6046 O.3     1  UNL1       -0.3794
     13 H          11.6998   71.2626    2.0650 H       1  UNL1        0.2106
     14 H          12.0445   71.9029   -0.0676 H       1  UNL1        0.2105
     15 N          12.3086   67.3036    1.8411 N.ar    1  UNL1       -0.2551
     16 C          13.4423   66.8246    2.3834 C.ar    1  UNL1        0.3323
     17 N          13.4054   65.9254    3.3846 N.ar    1  UNL1       -0.2743
     18 C          12.2219   65.4904    3.8628 C.ar    1  UNL1        0.2626
     19 C          11.0207   65.9870    3.3020 C.ar    1  UNL1        0.0795
     20 C          11.0874   66.8910    2.3020 C.ar    1  UNL1        0.0869
     21 O          14.5165   67.2081    1.9623 O.2     1  UNL1       -0.2464
     22 O          12.1871   64.6769    4.7692 O.2     1  UNL1       -0.2670
     23 H          14.2322   65.5894    3.7634 H       1  UNL1        0.1734
     24 O          17.2586   71.2967   -3.6881 O.3     1  UNL1       -0.2703
     25 P          18.5083   70.3069   -3.9149 P.3     1  UNL1        0.2208
     26 O          19.3075   70.1261   -2.5284 O.3     1  UNL1       -0.4371
     27 O          18.0174   68.9897   -4.3759 O.2     1  UNL1       -0.5170
     28 O          19.4931   70.9317   -5.0250 O.3     1  UNL1       -0.2865
     29 C          19.6923   72.3372   -5.1863 C.3     1  UNL1        0.2611
     30 C          20.0670   72.6370   -6.6397 C.3     1  UNL1        0.1582
     31 C          21.3894   71.9388   -6.9714 C.3     1  UNL1        0.1625
     32 C          22.4634   72.4085   -5.9864 C.3     1  UNL1        0.1686
     33 C          21.9962   72.1173   -4.5578 C.3     1  UNL1        0.1760
     34 O          21.7844   72.2731   -8.3039 O.3     1  UNL1       -0.3801
     35 O          22.6745   73.8127   -6.1436 O.3     1  UNL1       -0.3794
     36 O          20.7468   72.7704   -4.3245 O.3     1  UNL1       -0.3263
     37 H          22.6154   71.8638   -8.5817 H       1  UNL1        0.2105
     38 H          23.3435   74.1796   -5.5489 H       1  UNL1        0.2105
     39 C          19.1167   70.9116   -8.0741 C.2     1  UNL1        0.2231
     40 C          18.0347   70.3995   -8.9882 C.3     1  UNL1        0.0946
     41 N          19.0141   72.1398   -7.5290 N.am    1  UNL1       -0.2994
     42 O          20.0816   70.2183   -7.8281 O.2     1  UNL1       -0.2751
     43 H          18.2434   72.6948   -7.7262 H       1  UNL1        0.1496
     44 C          23.0374   72.6377   -3.5650 C.3     1  UNL1        0.1693
     45 O          24.3443   72.4936   -4.1249 O.3     1  UNL1       -0.3794
     46 H          25.0561   72.8041   -3.5486 H       1  UNL1        0.2105
@<TRIPOS>BOND
     1    29    30    1
     2    30    41    1
     3    30    31    1
     4    31    34    1
     5    31    32    1
     6    32    35    1
     7    32    33    1
     8    33    36    1
     9    33    44    1
    10    39    40    1
    11    39    42    2
    12    39    41   am
    13    41    43    1
    14    29    28    1
    15    34    37    1
    16    35    38    1
    17    29    36    1
    18    44    45    1
    19    45    46    1
    20    15     6    1
    21    15    16   ar
    22    16    21    2
    23    16    17   ar
    24    17    23    1
    25    17    18   ar
    26    18    19   ar
    27    19    20   ar
    28    15    20   ar
    29    18    22    2
    30     6     7    1
    31     6    11    1
    32     7     9    1
    33     7     8    1
    34     8    13    1
    35     9    10    1
    36     9    12    1
    37    10     5    1
    38    10    11    1
    39    12    14    1
    40     5     4    1
    41     4     1    1
    42     1     2    1
    43     1    24    1
    44     1     3    2
    45    24    25    1
    46    28    25    1
    47    25    26    1
    48    25    27    2
@<TRIPOS>MOLECULE
UD2
 46 48 0 0 0
SMALL
GASTEIGER

@<TRIPOS>ATOM
      1 P          23.1430   72.0234   -3.3145 P.3     1  UNL1        0.2189
      2 O          23.8810   72.8634   -4.4725 O.3     1  UNL1       -0.4371
      3 O          23.9686   70.8502   -2.9527 O.2     1  UNL1       -0.5170
      4 O          22.9418   72.9583   -2.0187 O.3     1  UNL1       -0.3112
      5 C          21.6607   73.2286   -1.4468 C.3     1  UNL1        0.1811
      6 C          23.0624   72.2488    1.7173 C.3     1  UNL1        0.2383
      7 C          22.5503   73.6933    1.9485 C.3     1  UNL1        0.1895
      8 O          22.1378   73.8773    3.3041 O.3     1  UNL1       -0.3779
      9 C          21.3384   73.7664    0.9876 C.3     1  UNL1        0.1713
     10 C          21.5995   72.6430   -0.0339 C.3     1  UNL1        0.1764
     11 O          22.8612   72.0441    0.3020 O.3     1  UNL1       -0.3308
     12 O          20.1230   73.5243    1.6982 O.3     1  UNL1       -0.3794
     13 H          21.8098   74.7657    3.4985 H       1  UNL1        0.2106
     14 H          19.9384   74.1690    2.3945 H       1  UNL1        0.2105
     15 N          24.4832   72.1448    2.0572 N.ar    1  UNL1       -0.2551
     16 C          25.0831   70.9410    2.0526 C.ar    1  UNL1        0.3323
     17 N          26.3875   70.8158    2.3610 N.ar    1  UNL1       -0.2743
     18 C          27.1171   71.9042    2.6796 C.ar    1  UNL1        0.2626
     19 C          26.4987   73.1777    2.6875 C.ar    1  UNL1        0.0795
     20 C          25.1905   73.2743    2.3700 C.ar    1  UNL1        0.0869
     21 O          24.4375   69.9510    1.7670 O.2     1  UNL1       -0.2464
     22 O          28.2978   71.7923    2.9586 O.2     1  UNL1       -0.2670
     23 H          26.8040   69.9403    2.3540 H       1  UNL1        0.1734
     24 O          21.7061   71.5259   -3.8448 O.3     1  UNL1       -0.2703
     25 P          20.7982   71.8923   -5.1232 P.3     1  UNL1        0.2208
     26 O          20.3747   73.4445   -5.0529 O.3     1  UNL1       -0.4371
     27 O          21.5685   71.6474   -6.3621 O.2     1  UNL1       -0.5170
     28 O          19.4755   70.9741   -5.1228 O.3     1  UNL1       -0.2865
     29 C          18.1713   71.4876   -5.3996 C.3     1  UNL1        0.2611
     30 C          17.1213   70.4279   -5.0572 C.3     1  UNL1        0.1582
     31 C          17.3369   69.2012   -5.9487 C.3     1  UNL1        0.1625
     32 C          17.2696   69.6319   -7.4165 C.3     1  UNL1        0.1686
     33 C          18.3142   70.7225   -7.6680 C.3     1  UNL1        0.1760
     34 O          16.3158   68.2357   -5.6870 O.3     1  UNL1       -0.3801
     35 O          15.9667   70.1421   -7.7053 O.3     1  UNL1       -0.3794
     36 O          18.0754   71.8211   -6.7859 O.3     1  UNL1       -0.3263
     37 H          16.3911   67.4306   -6.2174 H       1  UNL1        0.2105
     38 H          15.8523   70.4353   -8.6201 H       1  UNL1        0.2105
     39 C          16.1976   69.5433   -2.9831 C.2     1  UNL1        0.2231
     40 C          16.3366   69.1451   -1.5371 C.3     1  UNL1        0.0946
     41 N          17.2572   70.0411   -3.6506 N.am    1  UNL1       -0.2994
     42 O          15.1312   69.4161   -3.5477 O.2     1  UNL1       -0.2751
     43 H          18.1097   70.1439   -3.1993 H       1  UNL1        0.1496
     44 C          18.2131   71.2007   -9.1177 C.3     1  UNL1        0.1693
     45 O          17.5042   70.2307   -9.8916 O.3     1  UNL1       -0.3794
     46 H          17.4021   70.4684  -10.8233 H       1  UNL1        0.2105
@<TRIPOS>BOND
     1    29    30    1
     2    30    41    1
     3    30    31    1
     4    31    34    1
     5    31    32    1
     6    32    35    1
     7    32    33    1
     8    33    36    1
     9    33    44    1
    10    39    40    1
    11    39    42    2
    12    39    41   am
    13    41    43    1
    14    29    28    1
    15    34    37    1
    16    35    38    1
    17    29    36    1
    18    44    45    1
    19    45    46    1
    20    15     6    1
    21    15    16   ar
    22    16    21    2
    23    16    17   ar
    24    17    23    1
    25    17    18   ar
    26    18    19   ar
    27    19    20   ar
    28    15    20   ar
    29    18    22    2
    30     6     7    1
    31     6    11    1
    32     7     9    1
    33     7     8    1
    34     8    13    1
    35     9    10    1
    36     9    12    1
    37    10     5    1
    38    10    11    1
    39    12    14    1
    40     5     4    1
    41     4     1    1
    42     1     2    1
    43     1    24    1
    44     1     3    2
    45    24    25    1
    46    28    25    1
    47    25    26    1
    48    25    27    2
@<TRIPOS>MOLECULE
UD2
 46 48 0 0 0
SMALL
GASTEIGER

@<TRIPOS>ATOM
      1 P          21.0219   71.9573   -2.7433 P.3     1  UNL1        0.2189
      2 O          21.5928   73.1765   -1.8607 O.3     1  UNL1       -0.4371
      3 O          21.4857   70.6740   -2.1715 O.2     1  UNL1       -0.5170
      4 O          19.4119   71.9975   -2.7359 O.3     1  UNL1       -0.3112
      5 C          18.6075   70.8578   -2.4268 C.3     1  UNL1        0.1811
      6 C          16.9884   70.5501   -5.6238 C.3     1  UNL1        0.2383
      7 C          16.9905   69.1112   -5.0479 C.3     1  UNL1        0.1895
      8 O          15.8535   68.3768   -5.5058 O.3     1  UNL1       -0.3779
      9 C          16.9034   69.3706   -3.5239 C.3     1  UNL1        0.1713
     10 C          17.3949   70.8215   -3.3602 C.3     1  UNL1        0.1764
     11 O          17.7672   71.2967   -4.6637 O.3     1  UNL1       -0.3308
     12 O          15.5537   69.2454   -3.0729 O.3     1  UNL1       -0.3794
     13 H          15.8104   67.4702   -5.1730 H       1  UNL1        0.2106
     14 H          15.1735   68.3667   -3.2064 H       1  UNL1        0.2105
     15 N          17.6273   70.5793   -6.9413 N.ar    1  UNL1       -0.2551
     16 C          16.8725   70.4815   -8.0502 C.ar    1  UNL1        0.3323
     17 N          17.4329   70.5053   -9.2740 N.ar    1  UNL1       -0.2743
     18 C          18.7691   70.6303   -9.4063 C.ar    1  UNL1        0.2626
     19 C          19.5755   70.7352   -8.2476 C.ar    1  UNL1        0.0795
     20 C          18.9866   70.7128   -7.0335 C.ar    1  UNL1        0.0869
     21 O          15.6664   70.3685   -7.9460 O.2     1  UNL1       -0.2464
     22 O          19.2774   70.6524  -10.5134 O.2     1  UNL1       -0.2670
     23 H          16.8741   70.4324  -10.0631 H       1  UNL1        0.1734
     24 O          21.5546   72.0946   -4.2568 O.3     1  UNL1       -0.2703
     25 P          22.8321   72.8050   -4.9321 P.3     1  UNL1        0.2208
     26 O          24.1637   72.3922   -4.1258 O.3     1  UNL1       -0.4371
     27 O          22.9532   72.3676   -6.3401 O.2     1  UNL1       -0.5170
     28 O          22.6468   74.4036   -4.8804 O.3     1  UNL1       -0.2865
     29 C          23.6800   75.2937   -4.4544 C.3     1  UNL1        0.2611
     30 C          23.0547   76.5202   -3.7856 C.3     1  UNL1        0.1582
     31 C          22.1920   77.2649   -4.8091 C.3     1  UNL1        0.1625
     32 C          23.0583   77.6397   -6.0146 C.3     1  UNL1        0.1686
     33 C          23.6836   76.3697   -6.5977 C.3     1  UNL1        0.1760
     34 O          21.6629   78.4519   -4.2137 O.3     1  UNL1       -0.3801
     35 O          24.0919   78.5348   -5.6002 O.3     1  UNL1       -0.3794
     36 O          24.4470   75.7090   -5.5865 O.3     1  UNL1       -0.3263
     37 H          21.1047   78.9736   -4.8065 H       1  UNL1        0.2105
     38 H          24.6811   78.8142   -6.3149 H       1  UNL1        0.2105
     39 C          22.2433   76.7804   -1.5027 C.2     1  UNL1        0.2231
     40 C          21.3849   76.3406   -0.3459 C.3     1  UNL1        0.0946
     41 N          22.2196   76.0915   -2.6607 N.am    1  UNL1       -0.2994
     42 O          22.9569   77.7555   -1.3924 O.2     1  UNL1       -0.2751
     43 H          21.6499   75.3113   -2.7490 H       1  UNL1        0.1496
     44 C          24.5983   76.7420   -7.7662 C.3     1  UNL1        0.1693
     45 O          25.7553   75.9033   -7.7523 O.3     1  UNL1       -0.3794
     46 H          26.3811   76.0838   -8.4670 H       1  UNL1        0.2105
@<TRIPOS>BOND
     1    29    30    1
     2    30    41    1
     3    30    31    1
     4    31    34    1
     5    31    32    1
     6    32    35    1
     7    32    33    1
     8    33    36    1
     9    33    44    1
    10    39    40    1
    11    39    42    2
    12    39    41   am
    13    41    43    1
    14    29    28    1
    15    34    37    1
    16    35    38    1
    17    29    36    1
    18    44    45    1
    19    45    46    1
    20    15     6    1
    21    15    16   ar
    22    16    21    2
    23    16    17   ar
    24    17    23    1
    25    17    18   ar
    26    18    19   ar
    27    19    20   ar
    28    15    20   ar
    29    18    22    2
    30     6     7    1
    31     6    11    1
    32     7     9    1
    33     7     8    1
    34     8    13    1
    35     9    10    1
    36     9    12    1
    37    10     5    1
    38    10    11    1
    39    12    14    1
    40     5     4    1
    41     4     1    1
    42     1     2    1
    43     1    24    1
    44     1     3    2
    45    24    25    1
    46    28    25    1
    47    25    26    1
    48    25    27    2
@<TRIPOS>MOLECULE
UD2
 46 48 0 0 0
SMALL
GASTEIGER

@<TRIPOS>ATOM
      1 P          20.3049   71.0399   -2.7734 P.3     1  UNL1        0.2189
      2 O          20.0425   70.5254   -1.2708 O.3     1  UNL1       -0.4371
      3 O          20.4670   69.8763   -3.6726 O.2     1  UNL1       -0.5170
      4 O          19.0528   71.9265   -3.2632 O.3     1  UNL1       -0.3112
      5 C          17.7681   71.8677   -2.6407 C.3     1  UNL1        0.1811
      6 C          16.7328   70.5086   -5.8058 C.3     1  UNL1        0.2383
      7 C          17.1589   69.2736   -4.9720 C.3     1  UNL1        0.1895
      8 O          16.4016   68.1206   -5.3448 O.3     1  UNL1       -0.3779
      9 C          16.8126   69.7194   -3.5302 C.3     1  UNL1        0.1713
     10 C          16.7573   71.2567   -3.6144 C.3     1  UNL1        0.1764
     11 O          17.0935   71.6237   -4.9619 O.3     1  UNL1       -0.3308
     12 O          15.5440   69.1936   -3.1365 O.3     1  UNL1       -0.3794
     13 H          16.6322   67.3219   -4.8512 H       1  UNL1        0.2106
     14 H          15.5045   68.2279   -3.1236 H       1  UNL1        0.2105
     15 N          17.4714   70.5575   -7.0696 N.ar    1  UNL1       -0.2551
     16 C          16.7990   70.5774   -8.2341 C.ar    1  UNL1        0.3323
     17 N          17.4519   70.6220   -9.4105 N.ar    1  UNL1       -0.2743
     18 C          18.7999   70.6495   -9.4380 C.ar    1  UNL1        0.2626
     19 C          19.5205   70.6301   -8.2196 C.ar    1  UNL1        0.0795
     20 C          18.8400   70.5895   -7.0548 C.ar    1  UNL1        0.0869
     21 O          15.5833   70.5532   -8.2245 O.2     1  UNL1       -0.2464
     22 O          19.3920   70.6903  -10.5020 O.2     1  UNL1       -0.2670
     23 H          16.9516   70.6345  -10.2410 H       1  UNL1        0.1734
     24 O          21.6424   71.9361   -2.8082 O.3     1  UNL1       -0.2703
     25 P          22.1290   73.2494   -2.0137 P.3     1  UNL1        0.2208
     26 O          20.9327   73.7834   -1.0769 O.3     1  UNL1       -0.4371
     27 O          23.2995   72.9130   -1.1740 O.2     1  UNL1       -0.5170
     28 O          22.5367   74.3949   -3.0693 O.3     1  UNL1       -0.2865
     29 C          23.7202   74.3326   -3.8672 C.3     1  UNL1        0.2611
     30 C          24.1642   75.7505   -4.2347 C.3     1  UNL1        0.1582
     31 C          23.0709   76.4167   -5.0757 C.3     1  UNL1        0.1625
     32 C          22.7966   75.5557   -6.3117 C.3     1  UNL1        0.1686
     33 C          22.4052   74.1449   -5.8639 C.3     1  UNL1        0.1760
     34 O          23.5082   77.7146   -5.4852 O.3     1  UNL1       -0.3801
     35 O          23.9731   75.4916   -7.1198 O.3     1  UNL1       -0.3794
     36 O          23.4512   73.5944   -5.0609 O.3     1  UNL1       -0.3263
     37 H          22.8632   78.1952   -6.0221 H       1  UNL1        0.2105
     38 H          23.8717   74.9602   -7.9219 H       1  UNL1        0.2105
     39 C          25.6368   76.8239   -2.6170 C.2     1  UNL1        0.2231
     40 C          25.8625   77.6225   -1.3601 C.3     1  UNL1        0.0946
     41 N          24.3829   76.5272   -3.0119 N.am    1  UNL1       -0.2994
     42 O          26.5842   76.4471   -3.2748 O.2     1  UNL1       -0.2751
     43 H          23.6253   76.8274   -2.4857 H       1  UNL1        0.1496
     44 C          22.1875   73.2617   -7.0940 C.3     1  UNL1        0.1693
     45 O          23.0288   72.1096   -7.0090 O.3     1  UNL1       -0.3794
     46 H          22.9432   71.5034   -7.7575 H       1  UNL1        0.2105
@<TRIPOS>BOND
     1    29    30    1
     2    30    41    1
     3    30    31    1
     4    31    34    1
     5    31    32    1
     6    32    35    1
     7    32    33    1
     8    33    36    1
     9    33    44    1
    10    39    40    1
    11    39    42    2
    12    39    41   am
    13    41    43    1
    14    29    28    1
    15    34    37    1
    16    35    38    1
    17    29    36    1
    18    44    45    1
    19    45    46    1
    20    15     6    1
    21    15    16   ar
    22    16    21    2
    23    16    17   ar
    24    17    23    1
    25    17    18   ar
    26    18    19   ar
    27    19    20   ar
    28    15    20   ar
    29    18    22    2
    30     6     7    1
    31     6    11    1
    32     7     9    1
    33     7     8    1
    34     8    13    1
    35     9    10    1
    36     9    12    1
    37    10     5    1
    38    10    11    1
    39    12    14    1
    40     5     4    1
    41     4     1    1
    42     1     2    1
    43     1    24    1
    44     1     3    2
    45    24    25    1
    46    28    25    1
    47    25    26    1
    48    25    27    2
@<TRIPOS>MOLECULE
UD2
 46 48 0 0 0
SMALL
GASTEIGER

@<TRIPOS>ATOM
      1 P          20.2550   71.5033   -2.3437 P.3     1  UNL1        0.2189
      2 O          19.8177   70.4915   -1.1704 O.3     1  UNL1       -0.4371
      3 O          21.2827   70.8609   -3.1923 O.2     1  UNL1       -0.5170
      4 O          18.9699   71.8704   -3.2422 O.3     1  UNL1       -0.3112
      5 C          17.6450   71.9403   -2.7117 C.3     1  UNL1        0.1811
      6 C          16.7041   70.4563   -5.8500 C.3     1  UNL1        0.2383
      7 C          17.1727   69.2627   -4.9794 C.3     1  UNL1        0.1895
      8 O          16.4692   68.0691   -5.3292 O.3     1  UNL1       -0.3779
      9 C          16.7916   69.7307   -3.5535 C.3     1  UNL1        0.1713
     10 C          16.6722   71.2616   -3.6791 C.3     1  UNL1        0.1764
     11 O          17.0076   71.6074   -5.0324 O.3     1  UNL1       -0.3308
     12 O          15.5421   69.1618   -3.1590 O.3     1  UNL1       -0.3794
     13 H          16.7278   67.2941   -4.8124 H       1  UNL1        0.2106
     14 H          15.5434   68.1958   -3.1209 H       1  UNL1        0.2105
     15 N          17.4541   70.5037   -7.1071 N.ar    1  UNL1       -0.2551
     16 C          16.7920   70.5494   -8.2768 C.ar    1  UNL1        0.3323
     17 N          17.4556   70.5934   -9.4473 N.ar    1  UNL1       -0.2743
     18 C          18.8040   70.5940   -9.4634 C.ar    1  UNL1        0.2626
     19 C          19.5138   70.5472   -8.2394 C.ar    1  UNL1        0.0795
     20 C          18.8228   70.5080   -7.0807 C.ar    1  UNL1        0.0869
     21 O          15.5761   70.5496   -8.2774 O.2     1  UNL1       -0.2464
     22 O          19.4058   70.6342  -10.5220 O.2     1  UNL1       -0.2670
     23 H          16.9626   70.6248  -10.2816 H       1  UNL1        0.1734
     24 O          20.8578   72.8486   -1.6956 O.3     1  UNL1       -0.2703
     25 P          20.4560   73.7558   -0.4274 P.3     1  UNL1        0.2208
     26 O          20.6492   75.3112   -0.7981 O.3     1  UNL1       -0.4371
     27 O          19.0423   73.5064   -0.0702 O.2     1  UNL1       -0.5170
     28 O          21.4000   73.3802    0.8217 O.3     1  UNL1       -0.2865
     29 C          21.3283   72.1259    1.5021 C.3     1  UNL1        0.2611
     30 C          21.4671   72.3531    3.0093 C.3     1  UNL1        0.1582
     31 C          22.8421   72.9623    3.3005 C.3     1  UNL1        0.1625
     32 C          23.9273   72.0322    2.7514 C.3     1  UNL1        0.1686
     33 C          23.6936   71.8173    1.2537 C.3     1  UNL1        0.1760
     34 O          23.0092   73.1100    4.7125 O.3     1  UNL1       -0.3801
     35 O          23.8679   70.7762    3.4296 O.3     1  UNL1       -0.3794
     36 O          22.3861   71.2780    1.0498 O.3     1  UNL1       -0.3263
     37 H          23.8597   73.4918    4.9696 H       1  UNL1        0.2105
     38 H          24.5286   70.1356    3.1311 H       1  UNL1        0.2105
     39 C          20.6540   74.5964    3.5035 C.2     1  UNL1        0.2231
     40 C          19.5769   75.5397    3.9711 C.3     1  UNL1        0.0946
     41 N          20.4190   73.2700    3.4645 N.am    1  UNL1       -0.2994
     42 O          21.7343   75.0305    3.1617 O.2     1  UNL1       -0.2751
     43 H          19.5558   72.9225    3.7386 H       1  UNL1        0.1496
     44 C          24.7387   70.8416    0.7095 C.3     1  UNL1        0.1693
     45 O          25.8637   70.8074    1.5902 O.3     1  UNL1       -0.3794
     46 H          26.5676   70.2080    1.3069 H       1  UNL1        0.2105
@<TRIPOS>BOND
     1    29    30    1
     2    30    41    1
     3    30    31    1
     4    31    34    1
     5    31    32    1
     6    32    35    1
     7    32    33    1
     8    33    36    1
     9    33    44    1
    10    39    40    1
    11    39    42    2
    12    39    41   am
    13    41    43    1
    14    29    28    1
    15    34    37    1
    16    35    38    1
    17    29    36    1
    18    44    45    1
    19    45    46    1
    20    15     6    1
    21    15    16   ar
    22    16    21    2
    23    16    17   ar
    24    17    23    1
    25    17    18   ar
    26    18    19   ar
    27    19    20   ar
    28    15    20   ar
    29    18    22    2
    30     6     7    1
    31     6    11    1
    32     7     9    1
    33     7     8    1
    34     8    13    1
    35     9    10    1
    36     9    12    1
    37    10     5    1
    38    10    11    1
    39    12    14    1
    40     5     4    1
    41     4     1    1
    42     1     2    1
    43     1    24    1
    44     1     3    2
    45    24    25    1
    46    28    25    1
    47    25    26    1
    48    25    27    2
@<TRIPOS>MOLECULE
UD2
 46 48 0 0 0
SMALL
GASTEIGER

@<TRIPOS>ATOM
      1 P          20.2256   72.6787   -2.2854 P.3     1  UNL1        0.2189
      2 O          21.4511   72.7831   -3.3240 O.3     1  UNL1       -0.4371
      3 O          20.0035   73.9960   -1.6496 O.2     1  UNL1       -0.5170
      4 O          18.8932   72.2305   -3.0712 O.3     1  UNL1       -0.3112
      5 C          18.0427   71.1750   -2.6196 C.3     1  UNL1        0.1811
      6 C          16.7220   70.4969   -5.8957 C.3     1  UNL1        0.2383
      7 C          16.8120   69.1068   -5.2164 C.3     1  UNL1        0.1895
      8 O          15.7890   68.2349   -5.7013 O.3     1  UNL1       -0.3779
      9 C          16.5786   69.4571   -3.7263 C.3     1  UNL1        0.1713
     10 C          16.9179   70.9571   -3.6346 C.3     1  UNL1        0.1764
     11 O          17.3479   71.3790   -4.9387 O.3     1  UNL1       -0.3308
     12 O          15.2146   69.2295   -3.3680 O.3     1  UNL1       -0.3794
     13 H          15.8041   67.3526   -5.3065 H       1  UNL1        0.2106
     14 H          14.9300   68.3107   -3.4639 H       1  UNL1        0.2105
     15 N          17.4593   70.5014   -7.1611 N.ar    1  UNL1       -0.2551
     16 C          16.7856   70.4894   -8.3250 C.ar    1  UNL1        0.3323
     17 N          17.4373   70.4929   -9.5029 N.ar    1  UNL1       -0.2743
     18 C          18.7854   70.5105   -9.5326 C.ar    1  UNL1        0.2626
     19 C          19.5074   70.5243   -8.3150 C.ar    1  UNL1        0.0795
     20 C          18.8281   70.5246   -7.1488 C.ar    1  UNL1        0.0869
     21 O          15.5698   70.4737   -8.3134 O.2     1  UNL1       -0.2464
     22 O          19.3765   70.5141  -10.5980 O.2     1  UNL1       -0.2670
     23 H          16.9361   70.4829  -10.3329 H       1  UNL1        0.1734
     24 O          20.5728   71.5876   -1.1532 O.3     1  UNL1       -0.2703
     25 P          21.3416   71.6492    0.2604 P.3     1  UNL1        0.2208
     26 O          21.4165   70.1708    0.8949 O.3     1  UNL1       -0.4371
     27 O          22.7120   72.1671    0.0548 O.2     1  UNL1       -0.5170
     28 O          20.5437   72.6242    1.2631 O.3     1  UNL1       -0.2865
     29 C          20.8880   73.9980    1.4512 C.3     1  UNL1        0.2611
     30 C          22.3966   74.1772    1.2644 C.3     1  UNL1        0.1582
     31 C          23.1348   73.3624    2.3310 C.3     1  UNL1        0.1625
     32 C          22.6642   73.8111    3.7172 C.3     1  UNL1        0.1686
     33 C          21.1450   73.6459    3.8095 C.3     1  UNL1        0.1760
     34 O          24.5420   73.5820    2.2100 O.3     1  UNL1       -0.3801
     35 O          23.0091   75.1830    3.9178 O.3     1  UNL1       -0.3794
     36 O          20.5210   74.4041    2.7713 O.3     1  UNL1       -0.3263
     37 H          25.0726   73.0950    2.8555 H       1  UNL1        0.2105
     38 H          22.7398   75.5353    4.7776 H       1  UNL1        0.2105
     39 C          23.4272   74.5328   -0.9149 C.2     1  UNL1        0.2231
     40 C          23.8261   74.0485   -2.2841 C.3     1  UNL1        0.0946
     41 N          22.7841   73.7055   -0.0675 N.am    1  UNL1       -0.2994
     42 O          23.6847   75.6685   -0.5741 O.2     1  UNL1       -0.2751
     43 H          22.5772   72.7977   -0.3399 H       1  UNL1        0.1496
     44 C          20.6594   74.1481    5.1706 C.3     1  UNL1        0.1693
     45 O          21.4801   73.5974    6.2028 O.3     1  UNL1       -0.3794
     46 H          21.2293   73.8736    7.0949 H       1  UNL1        0.2105
@<TRIPOS>BOND
     1    29    30    1
     2    30    41    1
     3    30    31    1
     4    31    34    1
     5    31    32    1
     6    32    35    1
     7    32    33    1
     8    33    36    1
     9    33    44    1
    10    39    40    1
    11    39    42    2
    12    39    41   am
    13    41    43    1
    14    29    28    1
    15    34    37    1
    16    35    38    1
    17    29    36    1
    18    44    45    1
    19    45    46    1
    20    15     6    1
    21    15    16   ar
    22    16    21    2
    23    16    17   ar
    24    17    23    1
    25    17    18   ar
    26    18    19   ar
    27    19    20   ar
    28    15    20   ar
    29    18    22    2
    30     6     7    1
    31     6    11    1
    32     7     9    1
    33     7     8    1
    34     8    13    1
    35     9    10    1
    36     9    12    1
    37    10     5    1
    38    10    11    1
    39    12    14    1
    40     5     4    1
    41     4     1    1
    42     1     2    1
    43     1    24    1
    44     1     3    2
    45    24    25    1
    46    28    25    1
    47    25    26    1
    48    25    27    2
@<TRIPOS>MOLECULE
UD2
 46 48 0 0 0
SMALL
GASTEIGER

@<TRIPOS>ATOM
      1 P          19.8414   72.5309   -2.6833 P.3     1  UNL1        0.2189
      2 O          19.5609   71.4695   -1.5059 O.3     1  UNL1       -0.4371
      3 O          20.8696   71.9912   -3.6001 O.2     1  UNL1       -0.5170
      4 O          18.4798   72.7974   -3.5010 O.3     1  UNL1       -0.3112
      5 C          17.1825   72.6034   -2.9346 C.3     1  UNL1        0.1811
      6 C          16.6471   70.5442   -5.8346 C.3     1  UNL1        0.2383
      7 C          17.3056   69.5966   -4.8000 C.3     1  UNL1        0.1895
      8 O          16.8550   68.2526   -4.9800 O.3     1  UNL1       -0.3779
      9 C          16.7950   70.1753   -3.4577 C.3     1  UNL1        0.1713
     10 C          16.3898   71.6215   -3.8010 C.3     1  UNL1        0.1764
     11 O          16.6979   71.8344   -5.1877 O.3     1  UNL1       -0.3308
     12 O          15.6646   69.4355   -2.9933 O.3     1  UNL1       -0.3794
     13 H          17.2394   67.6217   -4.3564 H       1  UNL1        0.2106
     14 H          15.8489   68.5029   -2.8178 H       1  UNL1        0.2105
     15 N          17.4157   70.5610   -7.0812 N.ar    1  UNL1       -0.2551
     16 C          16.7714   70.6076   -8.2608 C.ar    1  UNL1        0.3323
     17 N          17.4523   70.6238   -9.4219 N.ar    1  UNL1       -0.2743
     18 C          18.8006   70.5952   -9.4186 C.ar    1  UNL1        0.2626
     19 C          19.4918   70.5471   -8.1841 C.ar    1  UNL1        0.0795
     20 C          18.7837   70.5361   -7.0351 C.ar    1  UNL1        0.0869
     21 O          15.5560   70.6340   -8.2789 O.2     1  UNL1       -0.2464
     22 O          19.4181   70.6102  -10.4688 O.2     1  UNL1       -0.2670
     23 H          16.9721   70.6562  -10.2636 H       1  UNL1        0.1734
     24 O          20.3633   73.9145   -2.0458 O.3     1  UNL1       -0.2703
     25 P          20.2277   74.5978   -0.5940 P.3     1  UNL1        0.2208
     26 O          20.7718   76.1121   -0.6611 O.3     1  UNL1       -0.4371
     27 O          18.8070   74.6026   -0.1815 O.2     1  UNL1       -0.5170
     28 O          21.0946   73.7625    0.4753 O.3     1  UNL1       -0.2865
     29 C          22.2277   74.3070    1.1542 C.3     1  UNL1        0.2611
     30 C          23.2856   73.2164    1.3391 C.3     1  UNL1        0.1582
     31 C          22.7090   72.1013    2.2169 C.3     1  UNL1        0.1625
     32 C          22.2535   72.7001    3.5504 C.3     1  UNL1        0.1686
     33 C          21.2350   73.8108    3.2802 C.3     1  UNL1        0.1760
     34 O          23.7145   71.1137    2.4554 O.3     1  UNL1       -0.3801
     35 O          23.3808   73.2426    4.2404 O.3     1  UNL1       -0.3794
     36 O          21.8244   74.7997    2.4337 O.3     1  UNL1       -0.3263
     37 H          23.4176   70.3756    3.0053 H       1  UNL1        0.2105
     38 H          23.1654   73.6404    5.0955 H       1  UNL1        0.2105
     39 C          23.0204   71.5820   -0.4487 C.2     1  UNL1        0.2231
     40 C          23.4012   71.0180   -1.7924 C.3     1  UNL1        0.0946
     41 N          23.6568   72.6683    0.0321 N.am    1  UNL1       -0.2994
     42 O          22.1401   71.0584    0.2018 O.2     1  UNL1       -0.2751
     43 H          24.3613   73.0866   -0.4872 H       1  UNL1        0.1496
     44 C          20.8195   74.4545    4.6044 C.3     1  UNL1        0.1693
     45 O          20.9359   73.4961    5.6581 O.3     1  UNL1       -0.3794
     46 H          20.6880   73.8359    6.5288 H       1  UNL1        0.2105
@<TRIPOS>BOND
     1    29    30    1
     2    30    41    1
     3    30    31    1
     4    31    34    1
     5    31    32    1
     6    32    35    1
     7    32    33    1
     8    33    36    1
     9    33    44    1
    10    39    40    1
    11    39    42    2
    12    39    41   am
    13    41    43    1
    14    29    28    1
    15    34    37    1
    16    35    38    1
    17    29    36    1
    18    44    45    1
    19    45    46    1
    20    15     6    1
    21    15    16   ar
    22    16    21    2
    23    16    17   ar
    24    17    23    1
    25    17    18   ar
    26    18    19   ar
    27    19    20   ar
    28    15    20   ar
    29    18    22    2
    30     6     7    1
    31     6    11    1
    32     7     9    1
    33     7     8    1
    34     8    13    1
    35     9    10    1
    36     9    12    1
    37    10     5    1
    38    10    11    1
    39    12    14    1
    40     5     4    1
    41     4     1    1
    42     1     2    1
    43     1    24    1
    44     1     3    2
    45    24    25    1
    46    28    25    1
    47    25    26    1
    48    25    27    2
@<TRIPOS>MOLECULE
UD2
 46 48 0 0 0
SMALL
GASTEIGER

@<TRIPOS>ATOM
      1 P          23.4587   71.9584   -3.1964 P.3     1  UNL1        0.2189
      2 O          24.3773   73.0169   -3.9883 O.3     1  UNL1       -0.4371
      3 O          24.1957   70.6852   -3.0394 O.2     1  UNL1       -0.5170
      4 O          23.0911   72.5485   -1.7437 O.3     1  UNL1       -0.3112
      5 C          22.8083   71.7176   -0.6162 C.3     1  UNL1        0.1811
      6 C          24.6276   73.0380    2.1916 C.3     1  UNL1        0.2383
      7 C          24.7438   74.1338    1.1017 C.3     1  UNL1        0.1895
      8 O          24.8321   75.4324    1.6914 O.3     1  UNL1       -0.3779
      9 C          23.4122   73.9672    0.3295 C.3     1  UNL1        0.1713
     10 C          22.9565   72.5352    0.6693 C.3     1  UNL1        0.1764
     11 O          23.9680   71.9516    1.5058 O.3     1  UNL1       -0.3308
     12 O          22.4495   74.9199    0.7837 O.3     1  UNL1       -0.3794
     13 H          24.9070   76.1517    1.0499 H       1  UNL1        0.2106
     14 H          22.7118   75.8404    0.6484 H       1  UNL1        0.2105
     15 N          25.9552   72.6268    2.6533 N.ar    1  UNL1       -0.2551
     16 C          26.4487   71.4315    2.2837 C.ar    1  UNL1        0.3323
     17 N          27.6659   71.0278    2.6934 N.ar    1  UNL1       -0.2743
     18 C          28.4140   71.8232    3.4847 C.ar    1  UNL1        0.2626
     19 C          27.9074   73.0845    3.8806 C.ar    1  UNL1        0.0795
     20 C          26.6858   73.4654    3.4516 C.ar    1  UNL1        0.0869
     21 O          25.7853   70.7041    1.5703 O.2     1  UNL1       -0.2464
     22 O          29.5159   71.4592    3.8559 O.2     1  UNL1       -0.2670
     23 H          28.0060   70.1624    2.4187 H       1  UNL1        0.1734
     24 O          22.1042   71.6960   -4.0268 O.3     1  UNL1       -0.2703
     25 P          21.5171   72.2613   -5.4156 P.3     1  UNL1        0.2208
     26 O          21.2937   73.8518   -5.2954 O.3     1  UNL1       -0.4371
     27 O          22.4746   71.9794   -6.5074 O.2     1  UNL1       -0.5170
     28 O          20.1114   71.5442   -5.7354 O.3     1  UNL1       -0.2865
     29 C          19.0603   72.1814   -6.4637 C.3     1  UNL1        0.2611
     30 C          17.7085   71.7701   -5.8755 C.3     1  UNL1        0.1582
     31 C          17.5321   70.2567   -6.0328 C.3     1  UNL1        0.1625
     32 C          17.6561   69.8904   -7.5143 C.3     1  UNL1        0.1686
     33 C          19.0104   70.3742   -8.0395 C.3     1  UNL1        0.1760
     34 O          16.2412   69.8742   -5.5527 O.3     1  UNL1       -0.3801
     35 O          16.6054   70.5184   -8.2512 O.3     1  UNL1       -0.3794
     36 O          19.1227   71.7840   -7.8350 O.3     1  UNL1       -0.3263
     37 H          16.0614   68.9265   -5.6213 H       1  UNL1        0.2105
     38 H          16.6225   70.3301   -9.2000 H       1  UNL1        0.2105
     39 C          18.0616   71.2301   -3.5257 C.2     1  UNL1        0.2231
     40 C          18.0181   71.5922   -2.0644 C.3     1  UNL1        0.0946
     41 N          17.6656   72.1230   -4.4542 N.am    1  UNL1       -0.2994
     42 O          18.4534   70.1339   -3.8679 O.2     1  UNL1       -0.2751
     43 H          17.3513   72.9992   -4.1810 H       1  UNL1        0.1496
     44 C          19.1176   70.0650   -9.5339 C.3     1  UNL1        0.1693
     45 O          18.5614   71.1457  -10.2857 O.3     1  UNL1       -0.3794
     46 H          18.5954   71.0177  -11.2436 H       1  UNL1        0.2105
@<TRIPOS>BOND
     1    29    30    1
     2    30    41    1
     3    30    31    1
     4    31    34    1
     5    31    32    1
     6    32    35    1
     7    32    33    1
     8    33    36    1
     9    33    44    1
    10    39    40    1
    11    39    42    2
    12    39    41   am
    13    41    43    1
    14    29    28    1
    15    34    37    1
    16    35    38    1
    17    29    36    1
    18    44    45    1
    19    45    46    1
    20    15     6    1
    21    15    16   ar
    22    16    21    2
    23    16    17   ar
    24    17    23    1
    25    17    18   ar
    26    18    19   ar
    27    19    20   ar
    28    15    20   ar
    29    18    22    2
    30     6     7    1
    31     6    11    1
    32     7     9    1
    33     7     8    1
    34     8    13    1
    35     9    10    1
    36     9    12    1
    37    10     5    1
    38    10    11    1
    39    12    14    1
    40     5     4    1
    41     4     1    1
    42     1     2    1
    43     1    24    1
    44     1     3    2
    45    24    25    1
    46    28    25    1
    47    25    26    1
    48    25    27    2
@<TRIPOS>MOLECULE
UD2
 46 48 0 0 0
SMALL
GASTEIGER

@<TRIPOS>ATOM
      1 P          21.6420   71.1563   -0.1910 P.3     1  UNL1        0.2189
      2 O          21.4542   70.0901    1.0004 O.3     1  UNL1       -0.4371
      3 O          21.0007   72.4354    0.1853 O.2     1  UNL1       -0.5170
      4 O          23.2127   71.3994   -0.4507 O.3     1  UNL1       -0.3112
      5 C          24.2134   71.1345    0.5341 C.3     1  UNL1        0.1811
      6 C          25.5766   73.2717    3.0857 C.3     1  UNL1        0.2383
      7 C          25.5526   74.1530    1.8110 C.3     1  UNL1        0.1895
      8 O          25.3596   75.5287    2.1456 O.3     1  UNL1       -0.3779
      9 C          24.3259   73.5921    1.0507 C.3     1  UNL1        0.1713
     10 C          24.1264   72.1845    1.6444 C.3     1  UNL1        0.1764
     11 O          25.1757   71.9714    2.6020 O.3     1  UNL1       -0.3308
     12 O          23.1757   74.4045    1.2912 O.3     1  UNL1       -0.3794
     13 H          25.3380   76.1204    1.3813 H       1  UNL1        0.2106
     14 H          23.2689   75.3184    0.9904 H       1  UNL1        0.2105
     15 N          26.9267   73.2187    3.6507 N.ar    1  UNL1       -0.2551
     16 C          27.2764   74.0793    4.6232 C.ar    1  UNL1        0.3323
     17 N          28.5104   74.0533    5.1607 N.ar    1  UNL1       -0.2743
     18 C          29.4198   73.1557    4.7294 C.ar    1  UNL1        0.2626
     19 C          29.0649   72.2431    3.7070 C.ar    1  UNL1        0.0795
     20 C          27.8193   72.2889    3.1892 C.ar    1  UNL1        0.0869
     21 O          26.4667   74.8940    5.0220 O.2     1  UNL1       -0.2464
     22 O          30.5368   73.1308    5.2153 O.2     1  UNL1       -0.2670
     23 H          28.7465   74.6818    5.8602 H       1  UNL1        0.1734
     24 O          20.9585   70.5873   -1.5335 O.3     1  UNL1       -0.2703
     25 P          19.5695   70.8830   -2.2926 P.3     1  UNL1        0.2208
     26 O          18.5291   69.6914   -1.9904 O.3     1  UNL1       -0.4371
     27 O          19.0062   72.1630   -1.8102 O.2     1  UNL1       -0.5170
     28 O          19.8338   70.9761   -3.8782 O.3     1  UNL1       -0.2865
     29 C          19.6376   72.1744   -4.6310 C.3     1  UNL1        0.2611
     30 C          19.4101   71.8219   -6.1030 C.3     1  UNL1        0.1582
     31 C          20.6601   71.1272   -6.6518 C.3     1  UNL1        0.1625
     32 C          21.8693   72.0457   -6.4551 C.3     1  UNL1        0.1686
     33 C          22.0021   72.3896   -4.9692 C.3     1  UNL1        0.1760
     34 O          20.4848   70.8602   -8.0451 O.3     1  UNL1       -0.3801
     35 O          21.6856   73.2453   -7.2090 O.3     1  UNL1       -0.3794
     36 O          20.7950   73.0046   -4.5145 O.3     1  UNL1       -0.3263
     37 H          21.2397   70.4195   -8.4587 H       1  UNL1        0.2105
     38 H          22.4153   73.8757   -7.1305 H       1  UNL1        0.2105
     39 C          17.3701   71.0902   -7.2170 C.2     1  UNL1        0.2231
     40 C          16.1871   70.1656   -7.3366 C.3     1  UNL1        0.0946
     41 N          18.2594   70.9223   -6.2185 N.am    1  UNL1       -0.2994
     42 O          17.5230   71.9870   -8.0199 O.2     1  UNL1       -0.2751
     43 H          18.1371   70.2060   -5.5758 H       1  UNL1        0.1496
     44 C          23.1723   73.3550   -4.7720 C.3     1  UNL1        0.1693
     45 O          24.2918   72.6450   -4.2382 O.3     1  UNL1       -0.3794
     46 H          25.0720   73.1959   -4.0871 H       1  UNL1        0.2105
@<TRIPOS>BOND
     1    29    30    1
     2    30    41    1
     3    30    31    1
     4    31    34    1
     5    31    32    1
     6    32    35    1
     7    32    33    1
     8    33    36    1
     9    33    44    1
    10    39    40    1
    11    39    42    2
    12    39    41   am
    13    41    43    1
    14    29    28    1
    15    34    37    1
    16    35    38    1
    17    29    36    1
    18    44    45    1
    19    45    46    1
    20    15     6    1
    21    15    16   ar
    22    16    21    2
    23    16    17   ar
    24    17    23    1
    25    17    18   ar
    26    18    19   ar
    27    19    20   ar
    28    15    20   ar
    29    18    22    2
    30     6     7    1
    31     6    11    1
    32     7     9    1
    33     7     8    1
    34     8    13    1
    35     9    10    1
    36     9    12    1
    37    10     5    1
    38    10    11    1
    39    12    14    1
    40     5     4    1
    41     4     1    1
    42     1     2    1
    43     1    24    1
    44     1     3    2
    45    24    25    1
    46    28    25    1
    47    25    26    1
    48    25    27    2
@<TRIPOS>MOLECULE
UD2
 46 48 0 0 0
SMALL
GASTEIGER

@<TRIPOS>ATOM
      1 P          22.6888   72.5774   -4.8375 P.3     1  UNL1        0.2189
      2 O          22.8942   72.5480   -6.4339 O.3     1  UNL1       -0.4371
      3 O          23.9912   72.3667   -4.1680 O.2     1  UNL1       -0.5170
      4 O          22.0853   74.0052   -4.4005 O.3     1  UNL1       -0.3112
      5 C          22.6688   74.8156   -3.3786 C.3     1  UNL1        0.1811
      6 C          22.0949   73.7067   -0.0056 C.3     1  UNL1        0.2383
      7 C          22.6996   75.1254    0.1482 C.3     1  UNL1        0.1895
      8 O          22.1984   75.7691    1.3213 O.3     1  UNL1       -0.3779
      9 C          22.1925   75.8355   -1.1309 C.3     1  UNL1        0.1713
     10 C          21.8505   74.6810   -2.0920 C.3     1  UNL1        0.1764
     11 O          22.1875   73.4545   -1.4245 O.3     1  UNL1       -0.3308
     12 O          21.0267   76.6093   -0.8431 O.3     1  UNL1       -0.3794
     13 H          22.5480   76.6595    1.4615 H       1  UNL1        0.2106
     14 H          21.1710   77.3142   -0.1976 H       1  UNL1        0.2105
     15 N          22.8821   72.7263    0.7455 N.ar    1  UNL1       -0.2551
     16 C          22.2825   71.6292    1.2414 C.ar    1  UNL1        0.3323
     17 N          22.9813   70.7118    1.9357 N.ar    1  UNL1       -0.2743
     18 C          24.3030   70.8802    2.1438 C.ar    1  UNL1        0.2626
     19 C          24.9472   72.0298    1.6267 C.ar    1  UNL1        0.0795
     20 C          24.2229   72.9312    0.9307 C.ar    1  UNL1        0.0869
     21 O          21.0914   71.4643    1.0612 O.2     1  UNL1       -0.2464
     22 O          24.9368   70.0503    2.7717 O.2     1  UNL1       -0.2670
     23 H          22.5332   69.9271    2.2873 H       1  UNL1        0.1734
     24 O          21.6679   71.4092   -4.4059 O.3     1  UNL1       -0.2703
     25 P          20.1314   71.3889   -3.9244 P.3     1  UNL1        0.2208
     26 O          19.9804   70.4098   -2.6546 O.3     1  UNL1       -0.4371
     27 O          19.7152   72.7566   -3.5441 O.2     1  UNL1       -0.5170
     28 O          19.1996   70.8584   -5.1256 O.3     1  UNL1       -0.2865
     29 C          18.1837   71.6577   -5.7340 C.3     1  UNL1        0.2611
     30 C          16.8293   70.9594   -5.5903 C.3     1  UNL1        0.1582
     31 C          16.8739   69.6200   -6.3323 C.3     1  UNL1        0.1625
     32 C          17.2448   69.8717   -7.7964 C.3     1  UNL1        0.1686
     33 C          18.5835   70.6122   -7.8550 C.3     1  UNL1        0.1760
     34 O          15.5903   68.9945   -6.2655 O.3     1  UNL1       -0.3801
     35 O          16.2316   70.6660   -8.4159 O.3     1  UNL1       -0.3794
     36 O          18.4830   71.8337   -7.1203 O.3     1  UNL1       -0.3263
     37 H          15.5461   68.1394   -6.7151 H       1  UNL1        0.2105
     38 H          16.4019   70.8656   -9.3472 H       1  UNL1        0.2105
     39 C          16.8659   69.5419   -3.6086 C.2     1  UNL1        0.2231
     40 C          16.5773   69.2994   -2.1504 C.3     1  UNL1        0.0946
     41 N          16.5480   70.7242   -4.1718 N.am    1  UNL1       -0.2994
     42 O          17.3848   68.6724   -4.2772 O.2     1  UNL1       -0.2751
     43 H          16.1323   71.4192   -3.6379 H       1  UNL1        0.1496
     44 C          18.9322   70.9204   -9.3123 C.3     1  UNL1        0.1693
     45 O          18.1832   70.0609  -10.1741 O.3     1  UNL1       -0.3794
     46 H          18.3542   70.2009  -11.1155 H       1  UNL1        0.2105
@<TRIPOS>BOND
     1    29    30    1
     2    30    41    1
     3    30    31    1
     4    31    34    1
     5    31    32    1
     6    32    35    1
     7    32    33    1
     8    33    36    1
     9    33    44    1
    10    39    40    1
    11    39    42    2
    12    39    41   am
    13    41    43    1
    14    29    28    1
    15    34    37    1
    16    35    38    1
    17    29    36    1
    18    44    45    1
    19    45    46    1
    20    15     6    1
    21    15    16   ar
    22    16    21    2
    23    16    17   ar
    24    17    23    1
    25    17    18   ar
    26    18    19   ar
    27    19    20   ar
    28    15    20   ar
    29    18    22    2
    30     6     7    1
    31     6    11    1
    32     7     9    1
    33     7     8    1
    34     8    13    1
    35     9    10    1
    36     9    12    1
    37    10     5    1
    38    10    11    1
    39    12    14    1
    40     5     4    1
    41     4     1    1
    42     1     2    1
    43     1    24    1
    44     1     3    2
    45    24    25    1
    46    28    25    1
    47    25    26    1
    48    25    27    2
@<TRIPOS>MOLECULE
UD2
 46 48 0 0 0
SMALL
GASTEIGER

@<TRIPOS>ATOM
      1 P          20.3378   71.1647   -2.5545 P.3     1  UNL1        0.2189
      2 O          19.5820   70.2681   -1.4516 O.3     1  UNL1       -0.4371
      3 O          21.0319   70.2818   -3.5176 O.2     1  UNL1       -0.5170
      4 O          19.2618   72.0720   -3.3373 O.3     1  UNL1       -0.3112
      5 C          17.9784   72.3946   -2.7983 C.3     1  UNL1        0.1811
      6 C          16.7488   70.9942   -5.8746 C.3     1  UNL1        0.2383
      7 C          16.9779   69.7694   -4.9530 C.3     1  UNL1        0.1895
      8 O          16.0519   68.7237   -5.2546 O.3     1  UNL1       -0.3779
      9 C          16.7033   70.3625   -3.5493 C.3     1  UNL1        0.1713
     10 C          16.8864   71.8803   -3.7396 C.3     1  UNL1        0.1764
     11 O          17.2766   72.0964   -5.1050 O.3     1  UNL1       -0.3308
     12 O          15.3682   70.0673   -3.1355 O.3     1  UNL1       -0.3794
     13 H          16.1557   67.9354   -4.7047 H       1  UNL1        0.2106
     14 H          15.1799   69.1224   -3.0568 H       1  UNL1        0.2105
     15 N          17.4873   70.8405   -7.1299 N.ar    1  UNL1       -0.2551
     16 C          16.8146   70.6836   -8.2839 C.ar    1  UNL1        0.3323
     17 N          17.4675   70.5400   -9.4524 N.ar    1  UNL1       -0.2743
     18 C          18.8157   70.5533   -9.4827 C.ar    1  UNL1        0.2626
     19 C          19.5365   70.7187   -8.2756 C.ar    1  UNL1        0.0795
     20 C          18.8560   70.8647   -7.1192 C.ar    1  UNL1        0.0869
     21 O          15.5989   70.6699   -8.2716 O.2     1  UNL1       -0.2464
     22 O          19.4078   70.4238  -10.5396 O.2     1  UNL1       -0.2670
     23 H          16.9671   70.4266  -10.2751 H       1  UNL1        0.1734
     24 O          21.4136   72.1169   -1.8270 O.3     1  UNL1       -0.2703
     25 P          21.9573   73.6066   -2.1064 P.3     1  UNL1        0.2208
     26 O          22.7547   73.6327   -3.5054 O.3     1  UNL1       -0.4371
     27 O          20.8153   74.5445   -2.1726 O.2     1  UNL1       -0.5170
     28 O          22.9471   74.0486   -0.9157 O.3     1  UNL1       -0.2865
     29 C          22.5719   74.0122    0.4624 C.3     1  UNL1        0.2611
     30 C          23.3774   75.0564    1.2392 C.3     1  UNL1        0.1582
     31 C          24.8665   74.7075    1.1532 C.3     1  UNL1        0.1625
     32 C          25.0798   73.2906    1.6929 C.3     1  UNL1        0.1686
     33 C          24.2085   72.3142    0.8982 C.3     1  UNL1        0.1760
     34 O          25.6201   75.6355    1.9368 O.3     1  UNL1       -0.3801
     35 O          24.7127   73.2448    3.0729 O.3     1  UNL1       -0.3794
     36 O          22.8397   72.7132    0.9944 O.3     1  UNL1       -0.3263
     37 H          26.5736   75.4744    1.9274 H       1  UNL1        0.2105
     38 H          24.8220   72.3744    3.4809 H       1  UNL1        0.2105
     39 C          23.9752   76.8467   -0.3020 C.2     1  UNL1        0.2231
     40 C          23.7425   78.2089   -0.9010 C.3     1  UNL1        0.0946
     41 N          23.1506   76.3817    0.6572 N.am    1  UNL1       -0.2994
     42 O          24.9055   76.1672   -0.6828 O.2     1  UNL1       -0.2751
     43 H          22.4073   76.9250    0.9626 H       1  UNL1        0.1496
     44 C          24.3706   70.9046    1.4703 C.3     1  UNL1        0.1693
     45 O          25.7152   70.7238    1.9194 O.3     1  UNL1       -0.3794
     46 H          25.8909   69.8503    2.2951 H       1  UNL1        0.2105
@<TRIPOS>BOND
     1    29    30    1
     2    30    41    1
     3    30    31    1
     4    31    34    1
     5    31    32    1
     6    32    35    1
     7    32    33    1
     8    33    36    1
     9    33    44    1
    10    39    40    1
    11    39    42    2
    12    39    41   am
    13    41    43    1
    14    29    28    1
    15    34    37    1
    16    35    38    1
    17    29    36    1
    18    44    45    1
    19    45    46    1
    20    15     6    1
    21    15    16   ar
    22    16    21    2
    23    16    17   ar
    24    17    23    1
    25    17    18   ar
    26    18    19   ar
    27    19    20   ar
    28    15    20   ar
    29    18    22    2
    30     6     7    1
    31     6    11    1
    32     7     9    1
    33     7     8    1
    34     8    13    1
    35     9    10    1
    36     9    12    1
    37    10     5    1
    38    10    11    1
    39    12    14    1
    40     5     4    1
    41     4     1    1
    42     1     2    1
    43     1    24    1
    44     1     3    2
    45    24    25    1
    46    28    25    1
    47    25    26    1
    48    25    27    2
