@<TRIPOS>MOLECULE
UD2
 46 48 0 0 0
SMALL
GASTEIGER

@<TRIPOS>ATOM
      1 P          22.0184   70.8480   -2.6992 P.3     1  UNL1        0.2189
      2 O          21.3845   69.3685   -2.7208 O.3     1  UNL1       -0.4371
      3 O          23.3397   70.8290   -3.3647 O.2     1  UNL1       -0.5170
      4 O          21.0397   71.8625   -3.4779 O.3     1  UNL1       -0.3112
      5 C          20.0407   72.6405   -2.8160 C.3     1  UNL1        0.1811
      6 C          17.8572   71.4567   -5.4175 C.3     1  UNL1        0.2383
      7 C          18.0185   70.2461   -4.4632 C.3     1  UNL1        0.1895
      8 O          16.8417   69.4357   -4.4640 O.3     1  UNL1       -0.3779
      9 C          18.2126   70.9370   -3.0912 C.3     1  UNL1        0.1713
     10 C          18.6753   72.3622   -3.4494 C.3     1  UNL1        0.1764
     11 O          18.7771   72.4320   -4.8806 O.3     1  UNL1       -0.3308
     12 O          16.9779   70.9770   -2.3737 O.3     1  UNL1       -0.3794
     13 H          16.8941   68.6652   -3.8824 H       1  UNL1        0.2106
     14 H          16.6102   70.1058   -2.1733 H       1  UNL1        0.2105
     15 N          18.2335   71.0898   -6.7845 N.ar    1  UNL1       -0.2551
     16 C          17.2841   70.7086   -7.6575 C.ar    1  UNL1        0.3323
     17 N          17.6013   70.3657   -8.9200 N.ar    1  UNL1       -0.2743
     18 C          18.8853   70.4016   -9.3309 C.ar    1  UNL1        0.2626
     19 C          19.8948   70.8019   -8.4227 C.ar    1  UNL1        0.0795
     20 C          19.5476   71.1443   -7.1642 C.ar    1  UNL1        0.0869
     21 O          16.1223   70.6718   -7.3009 O.2     1  UNL1       -0.2464
     22 O          19.1736   70.0919  -10.4734 O.2     1  UNL1       -0.2670
     23 H          16.9045   70.0921   -9.5363 H       1  UNL1        0.1734
     24 O          22.1922   71.3354   -1.1742 O.3     1  UNL1       -0.2703
     25 P          22.5685   70.5889    0.2020 P.3     1  UNL1        0.2208
     26 O          21.4351   69.4981    0.5475 O.3     1  UNL1       -0.4371
     27 O          23.8754   69.9117    0.0549 O.2     1  UNL1       -0.5170
     28 O          22.6545   71.6696    1.3926 O.3     1  UNL1       -0.2865
     29 C          21.8458   72.8466    1.4354 C.3     1  UNL1        0.2611
     30 C          22.7060   74.0701    1.1101 C.3     1  UNL1        0.1582
     31 C          23.7957   74.2154    2.1768 C.3     1  UNL1        0.1625
     32 C          23.1358   74.3195    3.5545 C.3     1  UNL1        0.1686
     33 C          22.2588   73.0861    3.7856 C.3     1  UNL1        0.1760
     34 O          24.5583   75.3973    1.9219 O.3     1  UNL1       -0.3801
     35 O          22.3288   75.4972    3.6098 O.3     1  UNL1       -0.3794
     36 O          21.2867   72.9926    2.7425 O.3     1  UNL1       -0.3263
     37 H          25.2684   75.5519    2.5600 H       1  UNL1        0.2105
     38 H          21.8786   75.6270    4.4562 H       1  UNL1        0.2105
     39 C          22.9294   74.6531   -1.2453 C.2     1  UNL1        0.2231
     40 C          23.5686   74.4741   -2.5973 C.3     1  UNL1        0.0946
     41 N          23.3281   73.8952   -0.2048 N.am    1  UNL1       -0.2994
     42 O          22.0548   75.4800   -1.0923 O.2     1  UNL1       -0.2751
     43 H          24.0267   73.2332   -0.3269 H       1  UNL1        0.1496
     44 C          21.5490   73.2109    5.1351 C.3     1  UNL1        0.1693
     45 O          22.5201   73.2570    6.1825 O.3     1  UNL1       -0.3794
     46 H          22.1406   73.3359    7.0683 H       1  UNL1        0.2105
@<TRIPOS>BOND
     1    29    30    1
     2    30    41    1
     3    30    31    1
     4    31    34    1
     5    31    32    1
     6    32    35    1
     7    32    33    1
     8    33    36    1
     9    33    44    1
    10    39    40    1
    11    39    42    2
    12    39    41   am
    13    41    43    1
    14    29    28    1
    15    34    37    1
    16    35    38    1
    17    29    36    1
    18    44    45    1
    19    45    46    1
    20    15     6    1
    21    15    16   ar
    22    16    21    2
    23    16    17   ar
    24    17    23    1
    25    17    18   ar
    26    18    19   ar
    27    19    20   ar
    28    15    20   ar
    29    18    22    2
    30     6     7    1
    31     6    11    1
    32     7     9    1
    33     7     8    1
    34     8    13    1
    35     9    10    1
    36     9    12    1
    37    10     5    1
    38    10    11    1
    39    12    14    1
    40     5     4    1
    41     4     1    1
    42     1     2    1
    43     1    24    1
    44     1     3    2
    45    24    25    1
    46    28    25    1
    47    25    26    1
    48    25    27    2
@<TRIPOS>MOLECULE
UD2
 46 48 0 0 0
SMALL
GASTEIGER

@<TRIPOS>ATOM
      1 P          22.8386   71.9229   -3.2549 P.3     1  UNL1        0.2189
      2 O          23.4805   70.4467   -3.2686 O.3     1  UNL1       -0.4371
      3 O          23.4941   72.7562   -4.2868 O.2     1  UNL1       -0.5170
      4 O          21.2615   71.8251   -3.5661 O.3     1  UNL1       -0.3112
      5 C          20.2576   72.1261   -2.5950 C.3     1  UNL1        0.1811
      6 C          17.9827   71.3731   -5.2773 C.3     1  UNL1        0.2383
      7 C          18.0114   70.0841   -4.4172 C.3     1  UNL1        0.1895
      8 O          16.7573   69.4020   -4.4785 O.3     1  UNL1       -0.3779
      9 C          18.2657   70.6462   -2.9971 C.3     1  UNL1        0.1713
     10 C          18.8754   72.0388   -3.2470 C.3     1  UNL1        0.1764
     11 O          18.9943   72.2049   -4.6688 O.3     1  UNL1       -0.3308
     12 O          17.0365   70.7596   -2.2780 O.3     1  UNL1       -0.3794
     13 H          16.7257   68.5887   -3.9568 H       1  UNL1        0.2106
     14 H          16.5795   69.9185   -2.1436 H       1  UNL1        0.2105
     15 N          18.3292   71.0728   -6.6683 N.ar    1  UNL1       -0.2551
     16 C          17.3542   70.8035   -7.5547 C.ar    1  UNL1        0.3323
     17 N          17.6436   70.5240   -8.8393 N.ar    1  UNL1       -0.2743
     18 C          18.9251   70.5119   -9.2592 C.ar    1  UNL1        0.2626
     19 C          19.9614   70.7946   -8.3371 C.ar    1  UNL1        0.0795
     20 C          19.6420   71.0756   -7.0563 C.ar    1  UNL1        0.0869
     21 O          16.1942   70.8111   -7.1901 O.2     1  UNL1       -0.2464
     22 O          19.1883   70.2595  -10.4217 O.2     1  UNL1       -0.2670
     23 H          16.9286   70.3309   -9.4651 H       1  UNL1        0.1734
     24 O          23.0585   72.5906   -1.8060 O.3     1  UNL1       -0.2703
     25 P          22.9871   74.0994   -1.2480 P.3     1  UNL1        0.2208
     26 O          24.4803   74.6594   -1.0236 O.3     1  UNL1       -0.4371
     27 O          22.2820   74.9550   -2.2274 O.2     1  UNL1       -0.5170
     28 O          22.1910   74.1168    0.1515 O.3     1  UNL1       -0.2865
     29 C          22.8328   74.3331    1.4095 C.3     1  UNL1        0.2611
     30 C          22.4972   73.1808    2.3594 C.3     1  UNL1        0.1582
     31 C          20.9856   73.1578    2.6063 C.3     1  UNL1        0.1625
     32 C          20.5495   74.5154    3.1639 C.3     1  UNL1        0.1686
     33 C          20.9602   75.6165    2.1826 C.3     1  UNL1        0.1760
     34 O          20.6718   72.1308    3.5498 O.3     1  UNL1       -0.3801
     35 O          21.1817   74.7391    4.4255 O.3     1  UNL1       -0.3794
     36 O          22.3727   75.5631    1.9732 O.3     1  UNL1       -0.3263
     37 H          19.7291   72.0588    3.7531 H       1  UNL1        0.2105
     38 H          20.9509   75.5833    4.8377 H       1  UNL1        0.2105
     39 C          22.0396   71.1939    1.0251 C.2     1  UNL1        0.2231
     40 C          22.4677   69.8899    0.4047 C.3     1  UNL1        0.0946
     41 N          22.9143   71.9124    1.7564 N.am    1  UNL1       -0.2994
     42 O          20.9066   71.5982    0.8667 O.2     1  UNL1       -0.2751
     43 H          23.8199   71.5890    1.8841 H       1  UNL1        0.1496
     44 C          20.5812   76.9815    2.7603 C.3     1  UNL1        0.1693
     45 O          21.0648   78.0148    1.8997 O.3     1  UNL1       -0.3794
     46 H          20.8602   78.9093    2.2046 H       1  UNL1        0.2105
@<TRIPOS>BOND
     1    29    30    1
     2    30    41    1
     3    30    31    1
     4    31    34    1
     5    31    32    1
     6    32    35    1
     7    32    33    1
     8    33    36    1
     9    33    44    1
    10    39    40    1
    11    39    42    2
    12    39    41   am
    13    41    43    1
    14    29    28    1
    15    34    37    1
    16    35    38    1
    17    29    36    1
    18    44    45    1
    19    45    46    1
    20    15     6    1
    21    15    16   ar
    22    16    21    2
    23    16    17   ar
    24    17    23    1
    25    17    18   ar
    26    18    19   ar
    27    19    20   ar
    28    15    20   ar
    29    18    22    2
    30     6     7    1
    31     6    11    1
    32     7     9    1
    33     7     8    1
    34     8    13    1
    35     9    10    1
    36     9    12    1
    37    10     5    1
    38    10    11    1
    39    12    14    1
    40     5     4    1
    41     4     1    1
    42     1     2    1
    43     1    24    1
    44     1     3    2
    45    24    25    1
    46    28    25    1
    47    25    26    1
    48    25    27    2
@<TRIPOS>MOLECULE
UD2
 46 48 0 0 0
SMALL
GASTEIGER

@<TRIPOS>ATOM
      1 P          21.7705   70.3399   -0.3867 P.3     1  UNL1        0.2189
      2 O          22.4103   69.1095    0.4307 O.3     1  UNL1       -0.4371
      3 O          22.8185   70.9861   -1.2070 O.2     1  UNL1       -0.5170
      4 O          20.5978   69.7944   -1.3464 O.3     1  UNL1       -0.3112
      5 C          20.6532   69.8875   -2.7711 C.3     1  UNL1        0.1811
      6 C          18.6909   71.5845   -5.2623 C.3     1  UNL1        0.2383
      7 C          17.7691   70.4505   -4.7461 C.3     1  UNL1        0.1895
      8 O          16.3955   70.8372   -4.8179 O.3     1  UNL1       -0.3779
      9 C          18.2258   70.3050   -3.2738 C.3     1  UNL1        0.1713
     10 C          19.6362   70.9246   -3.2540 C.3     1  UNL1        0.1764
     11 O          19.9467   71.3245   -4.5983 O.3     1  UNL1       -0.3308
     12 O          17.3498   71.0265   -2.4062 O.3     1  UNL1       -0.3794
     13 H          15.7793   70.1605   -4.5065 H       1  UNL1        0.2106
     14 H          16.4344   70.7162   -2.4234 H       1  UNL1        0.2105
     15 N          18.8483   71.5000   -6.7159 N.ar    1  UNL1       -0.2551
     16 C          18.1298   72.3113   -7.5124 C.ar    1  UNL1        0.3323
     17 N          18.2540   72.2552   -8.8516 N.ar    1  UNL1       -0.2743
     18 C          19.1087   71.3790   -9.4178 C.ar    1  UNL1        0.2626
     19 C          19.8720   70.5197   -8.5914 C.ar    1  UNL1        0.0795
     20 C          19.7304   70.6006   -7.2517 C.ar    1  UNL1        0.0869
     21 O          17.3555   73.1063   -7.0156 O.2     1  UNL1       -0.2464
     22 O          19.2224   71.3275  -10.6298 O.2     1  UNL1       -0.2670
     23 H          17.7275   72.8466   -9.4113 H       1  UNL1        0.1734
     24 O          21.1607   71.4127    0.6480 O.3     1  UNL1       -0.2703
     25 P          21.7758   72.2612    1.8706 P.3     1  UNL1        0.2208
     26 O          20.7385   72.2555    3.1026 O.3     1  UNL1       -0.4371
     27 O          23.0540   71.6527    2.2999 O.2     1  UNL1       -0.5170
     28 O          22.0358   73.7772    1.3944 O.3     1  UNL1       -0.2865
     29 C          23.2059   74.1788    0.6796 C.3     1  UNL1        0.2611
     30 C          23.9619   75.2352    1.4889 C.3     1  UNL1        0.1582
     31 C          23.0722   76.4709    1.6564 C.3     1  UNL1        0.1625
     32 C          22.6625   76.9830    0.2729 C.3     1  UNL1        0.1686
     33 C          21.9563   75.8589   -0.4897 C.3     1  UNL1        0.1760
     34 O          23.7970   77.4906    2.3478 O.3     1  UNL1       -0.3801
     35 O          23.8256   77.3929   -0.4485 O.3     1  UNL1       -0.3794
     36 O          22.8264   74.7293   -0.5835 O.3     1  UNL1       -0.3263
     37 H          23.2928   78.3035    2.4897 H       1  UNL1        0.2105
     38 H          23.6404   77.7289   -1.3366 H       1  UNL1        0.2105
     39 C          23.4788   74.9065    3.8545 C.2     1  UNL1        0.2231
     40 C          23.8251   74.3487    5.2101 C.3     1  UNL1        0.0946
     41 N          24.2995   74.6926    2.8072 N.am    1  UNL1       -0.2994
     42 O          22.4605   75.5489    3.7048 O.2     1  UNL1       -0.2751
     43 H          25.1143   74.1799    2.9267 H       1  UNL1        0.1496
     44 C          21.5966   76.3441   -1.8953 C.3     1  UNL1        0.1693
     45 O          20.7712   75.3713   -2.5392 O.3     1  UNL1       -0.3794
     46 H          20.5042   75.6131   -3.4365 H       1  UNL1        0.2105
@<TRIPOS>BOND
     1    29    30    1
     2    30    41    1
     3    30    31    1
     4    31    34    1
     5    31    32    1
     6    32    35    1
     7    32    33    1
     8    33    36    1
     9    33    44    1
    10    39    40    1
    11    39    42    2
    12    39    41   am
    13    41    43    1
    14    29    28    1
    15    34    37    1
    16    35    38    1
    17    29    36    1
    18    44    45    1
    19    45    46    1
    20    15     6    1
    21    15    16   ar
    22    16    21    2
    23    16    17   ar
    24    17    23    1
    25    17    18   ar
    26    18    19   ar
    27    19    20   ar
    28    15    20   ar
    29    18    22    2
    30     6     7    1
    31     6    11    1
    32     7     9    1
    33     7     8    1
    34     8    13    1
    35     9    10    1
    36     9    12    1
    37    10     5    1
    38    10    11    1
    39    12    14    1
    40     5     4    1
    41     4     1    1
    42     1     2    1
    43     1    24    1
    44     1     3    2
    45    24    25    1
    46    28    25    1
    47    25    26    1
    48    25    27    2
@<TRIPOS>MOLECULE
UD2
 46 48 0 0 0
SMALL
GASTEIGER

@<TRIPOS>ATOM
      1 P          22.9569   72.1839   -3.3423 P.3     1  UNL1        0.2189
      2 O          23.4366   70.6481   -3.2921 O.3     1  UNL1       -0.4371
      3 O          23.6698   72.8888   -4.4304 O.2     1  UNL1       -0.5170
      4 O          21.3706   72.2418   -3.6143 O.3     1  UNL1       -0.3112
      5 C          20.3994   71.8940   -2.6257 C.3     1  UNL1        0.1811
      6 C          18.0524   71.3104   -5.2880 C.3     1  UNL1        0.2383
      7 C          18.0253   70.0059   -4.4516 C.3     1  UNL1        0.1895
      8 O          16.7365   69.3912   -4.5070 O.3     1  UNL1       -0.3779
      9 C          18.3277   70.5275   -3.0254 C.3     1  UNL1        0.1713
     10 C          19.0059   71.8909   -3.2591 C.3     1  UNL1        0.1764
     11 O          19.1142   72.0771   -4.6793 O.3     1  UNL1       -0.3308
     12 O          17.1159   70.6912   -2.2868 O.3     1  UNL1       -0.3794
     13 H          16.6695   68.5711   -3.9995 H       1  UNL1        0.2106
     14 H          16.6174   69.8726   -2.1609 H       1  UNL1        0.2105
     15 N          18.3639   71.0186   -6.6889 N.ar    1  UNL1       -0.2551
     16 C          17.3647   70.8021   -7.5627 C.ar    1  UNL1        0.3323
     17 N          17.6218   70.5316   -8.8561 N.ar    1  UNL1       -0.2743
     18 C          18.8948   70.4752   -9.2977 C.ar    1  UNL1        0.2626
     19 C          19.9564   70.7021   -8.3890 C.ar    1  UNL1        0.0795
     20 C          19.6694   70.9754   -7.0989 C.ar    1  UNL1        0.0869
     21 O          16.2121   70.8500   -7.1786 O.2     1  UNL1       -0.2464
     22 O          19.1288   70.2309  -10.4682 O.2     1  UNL1       -0.2670
     23 H          16.8895   70.3768   -9.4725 H       1  UNL1        0.1734
     24 O          23.2858   72.8955   -1.9356 O.3     1  UNL1       -0.2703
     25 P          23.2402   74.4189   -1.4158 P.3     1  UNL1        0.2208
     26 O          24.6435   75.1388   -1.7416 O.3     1  UNL1       -0.4371
     27 O          22.1454   75.1412   -2.0998 O.2     1  UNL1       -0.5170
     28 O          22.9841   74.4360    0.1738 O.3     1  UNL1       -0.2865
     29 C          21.7095   74.1656    0.7599 C.3     1  UNL1        0.2611
     30 C          21.7682   74.4462    2.2634 C.3     1  UNL1        0.1582
     31 C          22.7872   73.5033    2.9106 C.3     1  UNL1        0.1625
     32 C          22.3929   72.0556    2.6053 C.3     1  UNL1        0.1686
     33 C          22.3101   71.8671    1.0882 C.3     1  UNL1        0.1760
     34 O          22.7954   73.7079    4.3253 O.3     1  UNL1       -0.3801
     35 O          21.1213   71.7731    3.1923 O.3     1  UNL1       -0.3794
     36 O          21.3682   72.7945    0.5453 O.3     1  UNL1       -0.3263
     37 H          23.4200   73.1429    4.8004 H       1  UNL1        0.2105
     38 H          20.8078   70.8709    3.0379 H       1  UNL1        0.2105
     39 C          21.3488   76.6873    3.1232 C.2     1  UNL1        0.2231
     40 C          21.7676   78.1157    3.3529 C.3     1  UNL1        0.0946
     41 N          22.1763   75.8356    2.4862 N.am    1  UNL1       -0.2994
     42 O          20.2656   76.3026    3.5118 O.2     1  UNL1       -0.2751
     43 H          23.0420   76.1430    2.1745 H       1  UNL1        0.1496
     44 C          21.8584   70.4392    0.7759 C.3     1  UNL1        0.1693
     45 O          22.9619   69.5447    0.9327 O.3     1  UNL1       -0.3794
     46 H          22.7480   68.6195    0.7503 H       1  UNL1        0.2105
@<TRIPOS>BOND
     1    29    30    1
     2    30    41    1
     3    30    31    1
     4    31    34    1
     5    31    32    1
     6    32    35    1
     7    32    33    1
     8    33    36    1
     9    33    44    1
    10    39    40    1
    11    39    42    2
    12    39    41   am
    13    41    43    1
    14    29    28    1
    15    34    37    1
    16    35    38    1
    17    29    36    1
    18    44    45    1
    19    45    46    1
    20    15     6    1
    21    15    16   ar
    22    16    21    2
    23    16    17   ar
    24    17    23    1
    25    17    18   ar
    26    18    19   ar
    27    19    20   ar
    28    15    20   ar
    29    18    22    2
    30     6     7    1
    31     6    11    1
    32     7     9    1
    33     7     8    1
    34     8    13    1
    35     9    10    1
    36     9    12    1
    37    10     5    1
    38    10    11    1
    39    12    14    1
    40     5     4    1
    41     4     1    1
    42     1     2    1
    43     1    24    1
    44     1     3    2
    45    24    25    1
    46    28    25    1
    47    25    26    1
    48    25    27    2
@<TRIPOS>MOLECULE
UD2
 46 48 0 0 0
SMALL
GASTEIGER

@<TRIPOS>ATOM
      1 P          21.9858   74.0669   -6.2151 P.3     1  UNL1        0.2189
      2 O          23.2454   75.0693   -6.2240 O.3     1  UNL1       -0.4371
      3 O          20.7354   74.8437   -6.3632 O.2     1  UNL1       -0.5170
      4 O          22.1194   73.0266   -7.4372 O.3     1  UNL1       -0.3112
      5 C          21.5308   73.2539   -8.7191 C.3     1  UNL1        0.1811
      6 C          18.8379   71.1613   -7.5765 C.3     1  UNL1        0.2383
      7 C          18.1810   72.5440   -7.8189 C.3     1  UNL1        0.1895
      8 O          16.8157   72.3978   -8.2143 O.3     1  UNL1       -0.3779
      9 C          19.0346   73.1105   -8.9798 C.3     1  UNL1        0.1713
     10 C          20.3457   72.3044   -8.9114 C.3     1  UNL1        0.1764
     11 O          20.2437   71.4162   -7.7871 O.3     1  UNL1       -0.3308
     12 O          18.3799   72.8961  -10.2313 O.3     1  UNL1       -0.3794
     13 H          16.3613   73.2354   -8.3771 H       1  UNL1        0.2106
     14 H          17.5209   73.3331  -10.3066 H       1  UNL1        0.2105
     15 N          18.5951   70.7082   -6.2050 N.ar    1  UNL1       -0.2551
     16 C          17.4318   70.1073   -5.8978 C.ar    1  UNL1        0.3323
     17 N          17.1817   69.6811   -4.6456 N.ar    1  UNL1       -0.2743
     18 C          18.1020   69.8503   -3.6745 C.ar    1  UNL1        0.2626
     19 C          19.3313   70.4804   -3.9841 C.ar    1  UNL1        0.0795
     20 C          19.5570   70.8940   -5.2488 C.ar    1  UNL1        0.0869
     21 O          16.5929   69.9479   -6.7634 O.2     1  UNL1       -0.2464
     22 O          17.8770   69.4646   -2.5409 O.2     1  UNL1       -0.2670
     23 H          16.3372   69.2508   -4.4410 H       1  UNL1        0.1734
     24 O          21.9536   73.2575   -4.8233 O.3     1  UNL1       -0.2703
     25 P          23.0585   72.9161   -3.7028 P.3     1  UNL1        0.2208
     26 O          23.3402   71.3304   -3.6932 O.3     1  UNL1       -0.4371
     27 O          24.3128   73.6375   -4.0105 O.2     1  UNL1       -0.5170
     28 O          22.5163   73.3740   -2.2575 O.3     1  UNL1       -0.2865
     29 C          21.3415   72.8254   -1.6572 C.3     1  UNL1        0.2611
     30 C          20.8462   73.7627   -0.5532 C.3     1  UNL1        0.1582
     31 C          21.9190   73.8676    0.5351 C.3     1  UNL1        0.1625
     32 C          22.2346   72.4652    1.0626 C.3     1  UNL1        0.1686
     33 C          22.6766   71.5777   -0.1040 C.3     1  UNL1        0.1760
     34 O          21.4353   74.6827    1.6051 O.3     1  UNL1       -0.3801
     35 O          21.0671   71.9096    1.6704 O.3     1  UNL1       -0.3794
     36 O          21.6469   71.5478   -1.0944 O.3     1  UNL1       -0.3263
     37 H          22.0651   74.7931    2.3306 H       1  UNL1        0.2105
     38 H          21.1943   71.0193    2.0271 H       1  UNL1        0.2105
     39 C          19.3225   75.5153   -1.2911 C.2     1  UNL1        0.2231
     40 C          19.0577   76.8800   -1.8707 C.3     1  UNL1        0.0946
     41 N          20.5894   75.0903   -1.1172 N.am    1  UNL1       -0.2994
     42 O          18.3948   74.7975   -0.9805 O.2     1  UNL1       -0.2751
     43 H          21.3314   75.6634   -1.3663 H       1  UNL1        0.1496
     44 C          22.9365   70.1587    0.4051 C.3     1  UNL1        0.1693
     45 O          21.6915   69.4794    0.5810 O.3     1  UNL1       -0.3794
     46 H          21.7799   68.5719    0.9028 H       1  UNL1        0.2105
@<TRIPOS>BOND
     1    29    30    1
     2    30    41    1
     3    30    31    1
     4    31    34    1
     5    31    32    1
     6    32    35    1
     7    32    33    1
     8    33    36    1
     9    33    44    1
    10    39    40    1
    11    39    42    2
    12    39    41   am
    13    41    43    1
    14    29    28    1
    15    34    37    1
    16    35    38    1
    17    29    36    1
    18    44    45    1
    19    45    46    1
    20    15     6    1
    21    15    16   ar
    22    16    21    2
    23    16    17   ar
    24    17    23    1
    25    17    18   ar
    26    18    19   ar
    27    19    20   ar
    28    15    20   ar
    29    18    22    2
    30     6     7    1
    31     6    11    1
    32     7     9    1
    33     7     8    1
    34     8    13    1
    35     9    10    1
    36     9    12    1
    37    10     5    1
    38    10    11    1
    39    12    14    1
    40     5     4    1
    41     4     1    1
    42     1     2    1
    43     1    24    1
    44     1     3    2
    45    24    25    1
    46    28    25    1
    47    25    26    1
    48    25    27    2
@<TRIPOS>MOLECULE
UD2
 46 48 0 0 0
SMALL
GASTEIGER

@<TRIPOS>ATOM
      1 P          21.8664   70.7774   -0.4466 P.3     1  UNL1        0.2189
      2 O          21.5307   69.5002    0.4741 O.3     1  UNL1       -0.4371
      3 O          22.9941   70.4538   -1.3479 O.2     1  UNL1       -0.5170
      4 O          20.5715   71.1618   -1.3236 O.3     1  UNL1       -0.3112
      5 C          20.6489   71.5397   -2.6993 C.3     1  UNL1        0.1811
      6 C          18.1850   71.1814   -5.2949 C.3     1  UNL1        0.2383
      7 C          18.1154   69.8497   -4.5050 C.3     1  UNL1        0.1895
      8 O          16.7940   69.3067   -4.5360 O.3     1  UNL1       -0.3779
      9 C          18.4937   70.3008   -3.0730 C.3     1  UNL1        0.1713
     10 C          19.2367   71.6341   -3.2822 C.3     1  UNL1        0.1764
     11 O          19.3068   71.8673   -4.6979 O.3     1  UNL1       -0.3308
     12 O          17.3183   70.5009   -2.2861 O.3     1  UNL1       -0.3794
     13 H          16.6998   68.4729   -4.0560 H       1  UNL1        0.2106
     14 H          16.7806   69.7057   -2.1716 H       1  UNL1        0.2105
     15 N          18.4326   70.9260   -6.7157 N.ar    1  UNL1       -0.2551
     16 C          17.3940   70.7794   -7.5574 C.ar    1  UNL1        0.3323
     17 N          17.5921   70.5438   -8.8679 N.ar    1  UNL1       -0.2743
     18 C          18.8446   70.4525   -9.3593 C.ar    1  UNL1        0.2626
     19 C          19.9473   70.6058   -8.4848 C.ar    1  UNL1        0.0795
     20 C          19.7193   70.8455   -7.1763 C.ar    1  UNL1        0.0869
     21 O          16.2591   70.8594   -7.1282 O.2     1  UNL1       -0.2464
     22 O          19.0253   70.2397  -10.5453 O.2     1  UNL1       -0.2670
     23 H          16.8320   70.4394   -9.4607 H       1  UNL1        0.1734
     24 O          22.2685   72.0239    0.4903 O.3     1  UNL1       -0.2703
     25 P          22.2348   73.6225    0.2994 P.3     1  UNL1        0.2208
     26 O          23.2315   74.0409   -0.8944 O.3     1  UNL1       -0.4371
     27 O          20.8588   74.0508   -0.0347 O.2     1  UNL1       -0.5170
     28 O          22.7028   74.3359    1.6649 O.3     1  UNL1       -0.2865
     29 C          22.4174   73.8027    2.9593 C.3     1  UNL1        0.2611
     30 C          21.4769   74.7511    3.7068 C.3     1  UNL1        0.1582
     31 C          22.1761   76.0998    3.9032 C.3     1  UNL1        0.1625
     32 C          23.4917   75.8761    4.6538 C.3     1  UNL1        0.1686
     33 C          24.3548   74.8841    3.8695 C.3     1  UNL1        0.1760
     34 O          21.3334   76.9677    4.6647 O.3     1  UNL1       -0.3801
     35 O          23.2169   75.3480    5.9526 O.3     1  UNL1       -0.3794
     36 O          23.6344   73.6624    3.6952 O.3     1  UNL1       -0.3263
     37 H          21.7138   77.8419    4.8268 H       1  UNL1        0.2105
     38 H          24.0071   75.1806    6.4851 H       1  UNL1        0.2105
     39 C          19.0557   74.9714    3.5429 C.2     1  UNL1        0.2231
     40 C          17.7969   75.1693    2.7398 C.3     1  UNL1        0.0946
     41 N          20.2529   74.9433    2.9249 N.am    1  UNL1       -0.2994
     42 O          18.9923   74.8371    4.7471 O.2     1  UNL1       -0.2751
     43 H          20.3040   75.0497    1.9620 H       1  UNL1        0.1496
     44 C          25.6460   74.6094    4.6427 C.3     1  UNL1        0.1693
     45 O          26.1454   75.8327    5.1873 O.3     1  UNL1       -0.3794
     46 H          26.9644   75.7338    5.6917 H       1  UNL1        0.2105
@<TRIPOS>BOND
     1    29    30    1
     2    30    41    1
     3    30    31    1
     4    31    34    1
     5    31    32    1
     6    32    35    1
     7    32    33    1
     8    33    36    1
     9    33    44    1
    10    39    40    1
    11    39    42    2
    12    39    41   am
    13    41    43    1
    14    29    28    1
    15    34    37    1
    16    35    38    1
    17    29    36    1
    18    44    45    1
    19    45    46    1
    20    15     6    1
    21    15    16   ar
    22    16    21    2
    23    16    17   ar
    24    17    23    1
    25    17    18   ar
    26    18    19   ar
    27    19    20   ar
    28    15    20   ar
    29    18    22    2
    30     6     7    1
    31     6    11    1
    32     7     9    1
    33     7     8    1
    34     8    13    1
    35     9    10    1
    36     9    12    1
    37    10     5    1
    38    10    11    1
    39    12    14    1
    40     5     4    1
    41     4     1    1
    42     1     2    1
    43     1    24    1
    44     1     3    2
    45    24    25    1
    46    28    25    1
    47    25    26    1
    48    25    27    2
@<TRIPOS>MOLECULE
UD2
 46 48 0 0 0
SMALL
GASTEIGER

@<TRIPOS>ATOM
      1 P          21.9825   70.8191   -0.3568 P.3     1  UNL1        0.2189
      2 O          21.6030   69.5576    0.5683 O.3     1  UNL1       -0.4371
      3 O          23.1133   70.4607   -1.2410 O.2     1  UNL1       -0.5170
      4 O          20.7092   71.2292   -1.2535 O.3     1  UNL1       -0.3112
      5 C          20.7666   71.3491   -2.6761 C.3     1  UNL1        0.1811
      6 C          18.2483   71.1342   -5.2352 C.3     1  UNL1        0.2383
      7 C          18.1446   69.7890   -4.4724 C.3     1  UNL1        0.1895
      8 O          16.8044   69.2937   -4.4917 O.3     1  UNL1       -0.3779
      9 C          18.5627   70.1953   -3.0380 C.3     1  UNL1        0.1713
     10 C          19.3491   71.5058   -3.2320 C.3     1  UNL1        0.1764
     11 O          19.4037   71.7670   -4.6435 O.3     1  UNL1       -0.3308
     12 O          17.4085   70.4196   -2.2266 O.3     1  UNL1       -0.3794
     13 H          16.6886   68.4535   -4.0277 H       1  UNL1        0.2106
     14 H          16.8448   69.6415   -2.1196 H       1  UNL1        0.2105
     15 N          18.4629   70.9011   -6.6651 N.ar    1  UNL1       -0.2551
     16 C          17.4050   70.7775   -7.4862 C.ar    1  UNL1        0.3323
     17 N          17.5726   70.5627   -8.8046 N.ar    1  UNL1       -0.2743
     18 C          18.8134   70.4695   -9.3247 C.ar    1  UNL1        0.2626
     19 C          19.9360   70.5987   -8.4720 C.ar    1  UNL1        0.0795
     20 C          19.7385   70.8178   -7.1550 C.ar    1  UNL1        0.0869
     21 O          16.2805   70.8595   -7.0311 O.2     1  UNL1       -0.2464
     22 O          18.9665   70.2755  -10.5177 O.2     1  UNL1       -0.2670
     23 H          16.7990   70.4747   -9.3823 H       1  UNL1        0.1734
     24 O          22.4036   72.0621    0.5764 O.3     1  UNL1       -0.2703
     25 P          21.7025   72.8200    1.8122 P.3     1  UNL1        0.2208
     26 O          20.6679   73.9188    1.2501 O.3     1  UNL1       -0.4371
     27 O          20.9740   71.8377    2.6445 O.2     1  UNL1       -0.5170
     28 O          22.8285   73.5487    2.7032 O.3     1  UNL1       -0.2865
     29 C          22.7748   74.9352    3.0439 C.3     1  UNL1        0.2611
     30 C          24.1807   75.4313    3.3900 C.3     1  UNL1        0.1582
     31 C          24.6937   74.6705    4.6166 C.3     1  UNL1        0.1625
     32 C          23.7089   74.8642    5.7728 C.3     1  UNL1        0.1686
     33 C          22.3207   74.3896    5.3347 C.3     1  UNL1        0.1760
     34 O          25.9761   75.1787    4.9914 O.3     1  UNL1       -0.3801
     35 O          23.6520   76.2476    6.1253 O.3     1  UNL1       -0.3794
     36 O          21.9161   75.1151    4.1720 O.3     1  UNL1       -0.3263
     37 H          26.3622   74.7410    5.7625 H       1  UNL1        0.2105
     38 H          23.0452   76.4442    6.8527 H       1  UNL1        0.2105
     39 C          25.4184   76.2104    1.4410 C.2     1  UNL1        0.2231
     40 C          26.3398   75.9661    0.2748 C.3     1  UNL1        0.0946
     41 N          25.0768   75.1928    2.2558 N.am    1  UNL1       -0.2994
     42 O          24.9831   77.3240    1.6474 O.2     1  UNL1       -0.2751
     43 H          25.4239   74.3021    2.0905 H       1  UNL1        0.1496
     44 C          21.3182   74.6350    6.4639 C.3     1  UNL1        0.1693
     45 O          20.1440   73.8524    6.2379 O.3     1  UNL1       -0.3794
     46 H          19.4634   73.9583    6.9166 H       1  UNL1        0.2105
@<TRIPOS>BOND
     1    29    30    1
     2    30    41    1
     3    30    31    1
     4    31    34    1
     5    31    32    1
     6    32    35    1
     7    32    33    1
     8    33    36    1
     9    33    44    1
    10    39    40    1
    11    39    42    2
    12    39    41   am
    13    41    43    1
    14    29    28    1
    15    34    37    1
    16    35    38    1
    17    29    36    1
    18    44    45    1
    19    45    46    1
    20    15     6    1
    21    15    16   ar
    22    16    21    2
    23    16    17   ar
    24    17    23    1
    25    17    18   ar
    26    18    19   ar
    27    19    20   ar
    28    15    20   ar
    29    18    22    2
    30     6     7    1
    31     6    11    1
    32     7     9    1
    33     7     8    1
    34     8    13    1
    35     9    10    1
    36     9    12    1
    37    10     5    1
    38    10    11    1
    39    12    14    1
    40     5     4    1
    41     4     1    1
    42     1     2    1
    43     1    24    1
    44     1     3    2
    45    24    25    1
    46    28    25    1
    47    25    26    1
    48    25    27    2
@<TRIPOS>MOLECULE
UD2
 46 48 0 0 0
SMALL
GASTEIGER

@<TRIPOS>ATOM
      1 P          21.7121   70.4553   -0.4510 P.3     1  UNL1        0.2189
      2 O          22.8470   70.7035   -1.5653 O.3     1  UNL1       -0.4371
      3 O          21.9505   69.1564    0.2160 O.2     1  UNL1       -0.5170
      4 O          21.7652   71.6374    0.6414 O.3     1  UNL1       -0.3112
      5 C          22.2739   71.4515    1.9636 C.3     1  UNL1        0.1811
      6 C          23.3821   74.6325    3.2245 C.3     1  UNL1        0.2383
      7 C          22.6406   74.9725    1.9066 C.3     1  UNL1        0.1895
      8 O          22.0342   76.2642    1.9813 O.3     1  UNL1       -0.3779
      9 C          21.5653   73.8603    1.8421 C.3     1  UNL1        0.1713
     10 C          22.1161   72.7505    2.7577 C.3     1  UNL1        0.1764
     11 O          23.3971   73.1885    3.2379 O.3     1  UNL1       -0.3308
     12 O          20.3163   74.3447    2.3382 O.3     1  UNL1       -0.3794
     13 H          21.5586   76.5226    1.1802 H       1  UNL1        0.2106
     14 H          19.9519   75.0843    1.8335 H       1  UNL1        0.2105
     15 N          24.7470   75.1629    3.2000 N.ar    1  UNL1       -0.2551
     16 C          25.4378   75.2781    4.3482 C.ar    1  UNL1        0.3323
     17 N          26.6939   75.7625    4.3554 N.ar    1  UNL1       -0.2743
     18 C          27.2823   76.1401    3.2022 C.ar    1  UNL1        0.2626
     19 C          26.5671   76.0232    1.9861 C.ar    1  UNL1        0.0795
     20 C          25.3108   75.5304    2.0079 C.ar    1  UNL1        0.0869
     21 O          24.9199   74.9413    5.3954 O.2     1  UNL1       -0.2464
     22 O          28.4192   76.5783    3.2073 O.2     1  UNL1       -0.2670
     23 H          27.1773   75.8401    5.1922 H       1  UNL1        0.1734
     24 O          20.2634   70.4400   -1.1542 O.3     1  UNL1       -0.2703
     25 P          19.6969   69.8334   -2.5341 P.3     1  UNL1        0.2208
     26 O          20.7964   68.8486   -3.1782 O.3     1  UNL1       -0.4371
     27 O          18.4540   69.0769   -2.2673 O.2     1  UNL1       -0.5170
     28 O          19.3849   71.0345   -3.5601 O.3     1  UNL1       -0.2865
     29 C          19.9313   71.0934   -4.8789 C.3     1  UNL1        0.2611
     30 C          20.3576   72.5297   -5.1920 C.3     1  UNL1        0.1582
     31 C          19.1245   73.4379   -5.1585 C.3     1  UNL1        0.1625
     32 C          18.0878   72.9100   -6.1539 C.3     1  UNL1        0.1686
     33 C          17.7489   71.4586   -5.8036 C.3     1  UNL1        0.1760
     34 O          19.5014   74.7680   -5.5217 O.3     1  UNL1       -0.3801
     35 O          18.6226   72.9700   -7.4774 O.3     1  UNL1       -0.3794
     36 O          18.9433   70.6744   -5.8226 O.3     1  UNL1       -0.3263
     37 H          18.7680   75.3983   -5.5208 H       1  UNL1        0.2105
     38 H          18.0182   72.6495   -8.1615 H       1  UNL1        0.2105
     39 C          22.6246   73.1221   -4.5230 C.2     1  UNL1        0.2231
     40 C          23.6210   73.5873   -3.4938 C.3     1  UNL1        0.0946
     41 N          21.3262   72.9820   -4.1902 N.am    1  UNL1       -0.2994
     42 O          22.9906   72.8731   -5.6527 O.2     1  UNL1       -0.2751
     43 H          21.0333   73.1801   -3.2868 H       1  UNL1        0.1496
     44 C          16.7582   70.9046   -6.8293 C.3     1  UNL1        0.1693
     45 O          17.4701   70.4449   -7.9801 O.3     1  UNL1       -0.3794
     46 H          16.9038   70.0796   -8.6735 H       1  UNL1        0.2105
@<TRIPOS>BOND
     1    29    30    1
     2    30    41    1
     3    30    31    1
     4    31    34    1
     5    31    32    1
     6    32    35    1
     7    32    33    1
     8    33    36    1
     9    33    44    1
    10    39    40    1
    11    39    42    2
    12    39    41   am
    13    41    43    1
    14    29    28    1
    15    34    37    1
    16    35    38    1
    17    29    36    1
    18    44    45    1
    19    45    46    1
    20    15     6    1
    21    15    16   ar
    22    16    21    2
    23    16    17   ar
    24    17    23    1
    25    17    18   ar
    26    18    19   ar
    27    19    20   ar
    28    15    20   ar
    29    18    22    2
    30     6     7    1
    31     6    11    1
    32     7     9    1
    33     7     8    1
    34     8    13    1
    35     9    10    1
    36     9    12    1
    37    10     5    1
    38    10    11    1
    39    12    14    1
    40     5     4    1
    41     4     1    1
    42     1     2    1
    43     1    24    1
    44     1     3    2
    45    24    25    1
    46    28    25    1
    47    25    26    1
    48    25    27    2
@<TRIPOS>MOLECULE
UD2
 46 48 0 0 0
SMALL
GASTEIGER

@<TRIPOS>ATOM
      1 P          21.6050   73.2011   -6.0401 P.3     1  UNL1        0.2189
      2 O          22.7440   72.8288   -7.1150 O.3     1  UNL1       -0.4371
      3 O          21.6666   74.6477   -5.7361 O.2     1  UNL1       -0.5170
      4 O          20.1570   72.8412   -6.6463 O.3     1  UNL1       -0.3112
      5 C          19.8050   71.5300   -7.0915 C.3     1  UNL1        0.1811
      6 C          16.6805   72.9642   -8.1483 C.3     1  UNL1        0.2383
      7 C          17.7421   73.6255   -9.0636 C.3     1  UNL1        0.1895
      8 O          17.1886   73.9386  -10.3432 O.3     1  UNL1       -0.3779
      9 C          18.8099   72.5103   -9.1815 C.3     1  UNL1        0.1713
     10 C          18.5476   71.6074   -7.9610 C.3     1  UNL1        0.1764
     11 O          17.4726   72.1991   -7.2142 O.3     1  UNL1       -0.3308
     12 O          18.6329   71.7765  -10.3943 O.3     1  UNL1       -0.3794
     13 H          17.8143   74.3547  -10.9515 H       1  UNL1        0.2106
     14 H          18.7284   72.3097  -11.1950 H       1  UNL1        0.2105
     15 N          15.8971   73.9838   -7.4470 N.ar    1  UNL1       -0.2551
     16 C          14.7439   74.4229   -7.9819 C.ar    1  UNL1        0.3323
     17 N          14.0037   75.3593   -7.3594 N.ar    1  UNL1       -0.2743
     18 C          14.4104   75.8729   -6.1807 C.ar    1  UNL1        0.2626
     19 C          15.6218   75.4190   -5.6056 C.ar    1  UNL1        0.0795
     20 C          16.3416   74.4763   -6.2496 C.ar    1  UNL1        0.0869
     21 O          14.3648   73.9686   -9.0441 O.2     1  UNL1       -0.2464
     22 O          13.7412   76.7202   -5.6160 O.2     1  UNL1       -0.2670
     23 H          13.1754   75.6657   -7.7596 H       1  UNL1        0.1734
     24 O          21.8452   72.3578   -4.6893 O.3     1  UNL1       -0.2703
     25 P          22.9955   72.3556   -3.5625 P.3     1  UNL1        0.2208
     26 O          23.4477   70.8396   -3.2609 O.3     1  UNL1       -0.4371
     27 O          24.1599   73.1305   -4.0443 O.2     1  UNL1       -0.5170
     28 O          22.4261   73.0248   -2.2132 O.3     1  UNL1       -0.2865
     29 C          21.2640   72.5432   -1.5358 C.3     1  UNL1        0.2611
     30 C          20.7850   73.5945   -0.5318 C.3     1  UNL1        0.1582
     31 C          21.8765   73.8189    0.5192 C.3     1  UNL1        0.1625
     32 C          22.2061   72.4829    1.1906 C.3     1  UNL1        0.1686
     33 C          22.6305   71.4742    0.1200 C.3     1  UNL1        0.1760
     34 O          21.4089   74.7451    1.5025 O.3     1  UNL1       -0.3801
     35 O          21.0513   71.9951    1.8761 O.3     1  UNL1       -0.3794
     36 O          21.5836   71.3350   -0.8427 O.3     1  UNL1       -0.3263
     37 H          22.0510   74.9348    2.2003 H       1  UNL1        0.2105
     38 H          21.1878   71.1492    2.3253 H       1  UNL1        0.2105
     39 C          21.4803   75.7852   -1.3412 C.2     1  UNL1        0.2231
     40 C          21.2025   77.0785   -2.0615 C.3     1  UNL1        0.0946
     41 N          20.5139   74.8524   -1.2324 N.am    1  UNL1       -0.2994
     42 O          22.5749   75.5827   -0.8583 O.2     1  UNL1       -0.2751
     43 H          19.6384   75.0143   -1.6175 H       1  UNL1        0.1496
     44 C          22.9041   70.1194    0.7759 C.3     1  UNL1        0.1693
     45 O          21.7331   69.3043    0.6936 O.3     1  UNL1       -0.3794
     46 H          21.8342   68.4285    1.0907 H       1  UNL1        0.2105
@<TRIPOS>BOND
     1    29    30    1
     2    30    41    1
     3    30    31    1
     4    31    34    1
     5    31    32    1
     6    32    35    1
     7    32    33    1
     8    33    36    1
     9    33    44    1
    10    39    40    1
    11    39    42    2
    12    39    41   am
    13    41    43    1
    14    29    28    1
    15    34    37    1
    16    35    38    1
    17    29    36    1
    18    44    45    1
    19    45    46    1
    20    15     6    1
    21    15    16   ar
    22    16    21    2
    23    16    17   ar
    24    17    23    1
    25    17    18   ar
    26    18    19   ar
    27    19    20   ar
    28    15    20   ar
    29    18    22    2
    30     6     7    1
    31     6    11    1
    32     7     9    1
    33     7     8    1
    34     8    13    1
    35     9    10    1
    36     9    12    1
    37    10     5    1
    38    10    11    1
    39    12    14    1
    40     5     4    1
    41     4     1    1
    42     1     2    1
    43     1    24    1
    44     1     3    2
    45    24    25    1
    46    28    25    1
    47    25    26    1
    48    25    27    2
@<TRIPOS>MOLECULE
UD2
 46 48 0 0 0
SMALL
GASTEIGER

@<TRIPOS>ATOM
      1 P          22.0168   70.4100   -0.2342 P.3     1  UNL1        0.2189
      2 O          22.7187   69.0971    0.3782 O.3     1  UNL1       -0.4371
      3 O          23.0455   71.2813   -0.8436 O.2     1  UNL1       -0.5170
      4 O          20.9493   69.9728   -1.3581 O.3     1  UNL1       -0.3112
      5 C          21.0506   70.3764   -2.7249 C.3     1  UNL1        0.1811
      6 C          18.4878   70.9267   -5.1878 C.3     1  UNL1        0.2383
      7 C          18.1086   69.5777   -4.5256 C.3     1  UNL1        0.1895
      8 O          16.6923   69.3888   -4.5276 O.3     1  UNL1       -0.3779
      9 C          18.6391   69.7632   -3.0828 C.3     1  UNL1        0.1713
     10 C          19.6896   70.8830   -3.2090 C.3     1  UNL1        0.1764
     11 O          19.7675   71.2421   -4.5976 O.3     1  UNL1       -0.3308
     12 O          17.5817   70.1648   -2.2103 O.3     1  UNL1       -0.3794
     13 H          16.4054   68.5583   -4.1243 H       1  UNL1        0.2106
     14 H          16.8634   69.5217   -2.1395 H       1  UNL1        0.2105
     15 N          18.6125   70.7719   -6.6389 N.ar    1  UNL1       -0.2551
     16 C          17.5068   70.7501   -7.4042 C.ar    1  UNL1        0.3323
     17 N          17.5917   70.6089   -8.7403 N.ar    1  UNL1       -0.2743
     18 C          18.7961   70.4883   -9.3349 C.ar    1  UNL1        0.2626
     19 C          19.9683   70.5106   -8.5415 C.ar    1  UNL1        0.0795
     20 C          19.8538   70.6577   -7.2048 C.ar    1  UNL1        0.0869
     21 O          16.4142   70.8580   -6.8817 O.2     1  UNL1       -0.2464
     22 O          18.8743   70.3609  -10.5441 O.2     1  UNL1       -0.2670
     23 H          16.7844   70.5940   -9.2772 H       1  UNL1        0.1734
     24 O          21.2607   71.2119    0.9400 O.3     1  UNL1       -0.2703
     25 P          21.7554   72.1572    2.1460 P.3     1  UNL1        0.2208
     26 O          20.5483   72.3691    3.1909 O.3     1  UNL1       -0.4371
     27 O          22.8981   71.5197    2.8361 O.2     1  UNL1       -0.5170
     28 O          22.2122   73.5843    1.5565 O.3     1  UNL1       -0.2865
     29 C          21.8746   74.8266    2.1761 C.3     1  UNL1        0.2611
     30 C          21.2407   75.7586    1.1406 C.3     1  UNL1        0.1582
     31 C          22.2620   76.0516    0.0372 C.3     1  UNL1        0.1625
     32 C          23.5201   76.6547    0.6679 C.3     1  UNL1        0.1686
     33 C          24.0662   75.6878    1.7218 C.3     1  UNL1        0.1760
     34 O          21.7036   76.9796   -0.8957 O.3     1  UNL1       -0.3801
     35 O          23.1942   77.9011    1.2856 O.3     1  UNL1       -0.3794
     36 O          23.0571   75.4335    2.7011 O.3     1  UNL1       -0.3263
     37 H          22.2971   77.2102   -1.6236 H       1  UNL1        0.2105
     38 H          23.9461   78.3403    1.7073 H       1  UNL1        0.2105
     39 C          20.1833   74.3715   -0.5610 C.2     1  UNL1        0.2231
     40 C          18.9719   73.7071   -1.1607 C.3     1  UNL1        0.0946
     41 N          20.0618   75.1129    0.5578 N.am    1  UNL1       -0.2994
     42 O          21.2696   74.2394   -1.0852 O.2     1  UNL1       -0.2751
     43 H          19.1933   75.2196    0.9766 H       1  UNL1        0.1496
     44 C          25.2892   76.3094    2.3989 C.3     1  UNL1        0.1693
     45 O          25.7826   75.4197    3.4026 O.3     1  UNL1       -0.3794
     46 H          26.5595   75.7499    3.8742 H       1  UNL1        0.2105
@<TRIPOS>BOND
     1    29    30    1
     2    30    41    1
     3    30    31    1
     4    31    34    1
     5    31    32    1
     6    32    35    1
     7    32    33    1
     8    33    36    1
     9    33    44    1
    10    39    40    1
    11    39    42    2
    12    39    41   am
    13    41    43    1
    14    29    28    1
    15    34    37    1
    16    35    38    1
    17    29    36    1
    18    44    45    1
    19    45    46    1
    20    15     6    1
    21    15    16   ar
    22    16    21    2
    23    16    17   ar
    24    17    23    1
    25    17    18   ar
    26    18    19   ar
    27    19    20   ar
    28    15    20   ar
    29    18    22    2
    30     6     7    1
    31     6    11    1
    32     7     9    1
    33     7     8    1
    34     8    13    1
    35     9    10    1
    36     9    12    1
    37    10     5    1
    38    10    11    1
    39    12    14    1
    40     5     4    1
    41     4     1    1
    42     1     2    1
    43     1    24    1
    44     1     3    2
    45    24    25    1
    46    28    25    1
    47    25    26    1
    48    25    27    2
@<TRIPOS>MOLECULE
UD2
 46 48 0 0 0
SMALL
GASTEIGER

@<TRIPOS>ATOM
      1 P          21.7046   70.6008   -0.3441 P.3     1  UNL1        0.2189
      2 O          21.6681   69.2273    0.4948 O.3     1  UNL1       -0.4371
      3 O          23.0696   70.8223   -0.8699 O.2     1  UNL1       -0.5170
      4 O          20.6654   70.5079   -1.5709 O.3     1  UNL1       -0.3112
      5 C          20.7040   71.3942   -2.6909 C.3     1  UNL1        0.1811
      6 C          18.2243   71.1511   -5.2849 C.3     1  UNL1        0.2383
      7 C          18.1078   69.8151   -4.5079 C.3     1  UNL1        0.1895
      8 O          16.7675   69.3207   -4.5416 O.3     1  UNL1       -0.3779
      9 C          18.5046   70.2381   -3.0723 C.3     1  UNL1        0.1713
     10 C          19.2952   71.5455   -3.2699 C.3     1  UNL1        0.1764
     11 O          19.3713   71.7900   -4.6834 O.3     1  UNL1       -0.3308
     12 O          17.3386   70.4728   -2.2811 O.3     1  UNL1       -0.3794
     13 H          16.6439   68.4862   -4.0695 H       1  UNL1        0.2106
     14 H          16.7726   69.6966   -2.1733 H       1  UNL1        0.2105
     15 N          18.4602   70.9009   -6.7085 N.ar    1  UNL1       -0.2551
     16 C          17.4145   70.7559   -7.5418 C.ar    1  UNL1        0.3323
     17 N          17.6017   70.5250   -8.8548 N.ar    1  UNL1       -0.2743
     18 C          18.8501   70.4371   -9.3572 C.ar    1  UNL1        0.2626
     19 C          19.9600   70.5888   -8.4916 C.ar    1  UNL1        0.0795
     20 C          19.7429   70.8237   -7.1804 C.ar    1  UNL1        0.0869
     21 O          16.2833   70.8330   -7.1027 O.2     1  UNL1       -0.2464
     22 O          19.0210   70.2286  -10.5454 O.2     1  UNL1       -0.2670
     23 H          16.8367   70.4217   -9.4415 H       1  UNL1        0.1734
     24 O          21.2931   71.8270    0.6153 O.3     1  UNL1       -0.2703
     25 P          22.0055   72.5614    1.8586 P.3     1  UNL1        0.2208
     26 O          22.9198   71.5015    2.6552 O.3     1  UNL1       -0.4371
     27 O          22.8533   73.6662    1.3595 O.2     1  UNL1       -0.5170
     28 O          20.8815   73.1521    2.8487 O.3     1  UNL1       -0.2865
     29 C          20.8723   74.5095    3.2944 C.3     1  UNL1        0.2611
     30 C          21.6573   74.6231    4.6034 C.3     1  UNL1        0.1582
     31 C          20.9677   73.7762    5.6775 C.3     1  UNL1        0.1625
     32 C          19.5175   74.2439    5.8279 C.3     1  UNL1        0.1686
     33 C          18.8148   74.1448    4.4713 C.3     1  UNL1        0.1760
     34 O          21.6521   73.9345    6.9224 O.3     1  UNL1       -0.3801
     35 O          19.4971   75.5993    6.2791 O.3     1  UNL1       -0.3794
     36 O          19.5238   74.9302    3.5109 O.3     1  UNL1       -0.3263
     37 H          21.2689   73.4244    7.6491 H       1  UNL1        0.2105
     38 H          18.6080   75.9623    6.3959 H       1  UNL1        0.2105
     39 C          24.0619   74.7824    4.9644 C.2     1  UNL1        0.2231
     40 C          25.4669   74.2821    4.7543 C.3     1  UNL1        0.0946
     41 N          23.0238   74.1360    4.3984 N.am    1  UNL1       -0.2994
     42 O          23.8640   75.7681    5.6437 O.2     1  UNL1       -0.2751
     43 H          23.1816   73.3484    3.8544 H       1  UNL1        0.1496
     44 C          17.3824   74.6665    4.5999 C.3     1  UNL1        0.1693
     45 O          16.8983   74.4111    5.9201 O.3     1  UNL1       -0.3794
     46 H          15.9937   74.7160    6.0738 H       1  UNL1        0.2105
@<TRIPOS>BOND
     1    29    30    1
     2    30    41    1
     3    30    31    1
     4    31    34    1
     5    31    32    1
     6    32    35    1
     7    32    33    1
     8    33    36    1
     9    33    44    1
    10    39    40    1
    11    39    42    2
    12    39    41   am
    13    41    43    1
    14    29    28    1
    15    34    37    1
    16    35    38    1
    17    29    36    1
    18    44    45    1
    19    45    46    1
    20    15     6    1
    21    15    16   ar
    22    16    21    2
    23    16    17   ar
    24    17    23    1
    25    17    18   ar
    26    18    19   ar
    27    19    20   ar
    28    15    20   ar
    29    18    22    2
    30     6     7    1
    31     6    11    1
    32     7     9    1
    33     7     8    1
    34     8    13    1
    35     9    10    1
    36     9    12    1
    37    10     5    1
    38    10    11    1
    39    12    14    1
    40     5     4    1
    41     4     1    1
    42     1     2    1
    43     1    24    1
    44     1     3    2
    45    24    25    1
    46    28    25    1
    47    25    26    1
    48    25    27    2
@<TRIPOS>MOLECULE
UD2
 46 48 0 0 0
SMALL
GASTEIGER

@<TRIPOS>ATOM
      1 P          21.6244   70.6820   -2.7429 P.3     1  UNL1        0.2189
      2 O          23.1775   70.7778   -2.3306 O.3     1  UNL1       -0.4371
      3 O          21.2124   69.2618   -2.7894 O.2     1  UNL1       -0.5170
      4 O          20.7313   71.4647   -1.6551 O.3     1  UNL1       -0.3112
      5 C          21.1065   71.5827   -0.2815 C.3     1  UNL1        0.1811
      6 C          21.6512   74.3198    1.9875 C.3     1  UNL1        0.2383
      7 C          23.0432   74.0493    1.3620 C.3     1  UNL1        0.1895
      8 O          23.8093   75.2528    1.2823 O.3     1  UNL1       -0.3779
      9 C          22.6708   73.5370   -0.0509 C.3     1  UNL1        0.1713
     10 C          21.2119   73.0632    0.0927 C.3     1  UNL1        0.1764
     11 O          20.8353   73.2482    1.4665 O.3     1  UNL1       -0.3308
     12 O          22.7617   74.5959   -1.0055 O.3     1  UNL1       -0.3794
     13 H          24.6886   75.1350    0.8982 H       1  UNL1        0.2106
     14 H          23.6478   74.9722   -1.0936 H       1  UNL1        0.2105
     15 N          21.7205   74.2524    3.4489 N.ar    1  UNL1       -0.2551
     16 C          21.8354   73.0579    4.0562 C.ar    1  UNL1        0.3323
     17 N          21.9010   72.9661    5.3976 N.ar    1  UNL1       -0.2743
     18 C          21.8539   74.0794    6.1572 C.ar    1  UNL1        0.2626
     19 C          21.7340   75.3435    5.5311 C.ar    1  UNL1        0.0795
     20 C          21.6746   75.4061    4.1843 C.ar    1  UNL1        0.0869
     21 O          21.8792   72.0457    3.3838 O.2     1  UNL1       -0.2464
     22 O          21.9135   73.9977    7.3714 O.2     1  UNL1       -0.2670
     23 H          21.9825   72.0968    5.8194 H       1  UNL1        0.1734
     24 O          21.4114   71.3507   -4.1923 O.3     1  UNL1       -0.2703
     25 P          21.7110   72.8092   -4.8055 P.3     1  UNL1        0.2208
     26 O          21.3816   73.9334   -3.7004 O.3     1  UNL1       -0.4371
     27 O          23.1365   72.8995   -5.1904 O.2     1  UNL1       -0.5170
     28 O          20.7881   73.0455   -6.1036 O.3     1  UNL1       -0.2865
     29 C          20.5882   72.0495   -7.1084 C.3     1  UNL1        0.2611
     30 C          20.1773   72.7222   -8.4203 C.3     1  UNL1        0.1582
     31 C          18.8452   73.4501   -8.2155 C.3     1  UNL1        0.1625
     32 C          17.7978   72.4470   -7.7246 C.3     1  UNL1        0.1686
     33 C          18.3006   71.7848   -6.4391 C.3     1  UNL1        0.1760
     34 O          18.4171   74.0197   -9.4547 O.3     1  UNL1       -0.3801
     35 O          17.5862   71.4493   -8.7252 O.3     1  UNL1       -0.3794
     36 O          19.5571   71.1525   -6.6908 O.3     1  UNL1       -0.3263
     37 H          17.5784   74.4977   -9.3985 H       1  UNL1        0.2105
     38 H          16.9334   70.7784   -8.4807 H       1  UNL1        0.2105
     39 C          21.1112   74.9729   -8.4292 C.2     1  UNL1        0.2231
     40 C          22.1683   75.9646   -8.8384 C.3     1  UNL1        0.0946
     41 N          21.2059   73.6864   -8.8190 N.am    1  UNL1       -0.2994
     42 O          20.1734   75.3320   -7.7481 O.2     1  UNL1       -0.2751
     43 H          21.9550   73.3990   -9.3643 H       1  UNL1        0.1496
     44 C          17.2864   70.7378   -5.9746 C.3     1  UNL1        0.1693
     45 O          16.0620   71.3840   -5.6202 O.3     1  UNL1       -0.3794
     46 H          15.3714   70.7796   -5.3156 H       1  UNL1        0.2105
@<TRIPOS>BOND
     1    29    30    1
     2    30    41    1
     3    30    31    1
     4    31    34    1
     5    31    32    1
     6    32    35    1
     7    32    33    1
     8    33    36    1
     9    33    44    1
    10    39    40    1
    11    39    42    2
    12    39    41   am
    13    41    43    1
    14    29    28    1
    15    34    37    1
    16    35    38    1
    17    29    36    1
    18    44    45    1
    19    45    46    1
    20    15     6    1
    21    15    16   ar
    22    16    21    2
    23    16    17   ar
    24    17    23    1
    25    17    18   ar
    26    18    19   ar
    27    19    20   ar
    28    15    20   ar
    29    18    22    2
    30     6     7    1
    31     6    11    1
    32     7     9    1
    33     7     8    1
    34     8    13    1
    35     9    10    1
    36     9    12    1
    37    10     5    1
    38    10    11    1
    39    12    14    1
    40     5     4    1
    41     4     1    1
    42     1     2    1
    43     1    24    1
    44     1     3    2
    45    24    25    1
    46    28    25    1
    47    25    26    1
    48    25    27    2
@<TRIPOS>MOLECULE
UD2
 46 48 0 0 0
SMALL
GASTEIGER

@<TRIPOS>ATOM
      1 P          21.8590   70.8522   -0.4752 P.3     1  UNL1        0.2189
      2 O          21.4814   69.5934    0.4544 O.3     1  UNL1       -0.4371
      3 O          22.9311   70.4655   -1.4185 O.2     1  UNL1       -0.5170
      4 O          20.5580   71.3175   -1.3026 O.3     1  UNL1       -0.3112
      5 C          20.6089   71.7062   -2.6766 C.3     1  UNL1        0.1811
      6 C          18.1651   71.1833   -5.2633 C.3     1  UNL1        0.2383
      7 C          18.1743   69.8568   -4.4620 C.3     1  UNL1        0.1895
      8 O          16.8866   69.2378   -4.4853 O.3     1  UNL1       -0.3779
      9 C          18.5285   70.3413   -3.0347 C.3     1  UNL1        0.1713
     10 C          19.1925   71.7136   -3.2569 C.3     1  UNL1        0.1764
     11 O          19.2464   71.9383   -4.6747 O.3     1  UNL1       -0.3308
     12 O          17.3449   70.4797   -2.2468 O.3     1  UNL1       -0.3794
     13 H          16.8418   68.4041   -3.9980 H       1  UNL1        0.2106
     14 H          16.8544   69.6557   -2.1244 H       1  UNL1        0.2105
     15 N          18.4246   70.9306   -6.6824 N.ar    1  UNL1       -0.2551
     16 C          17.3936   70.7400   -7.5247 C.ar    1  UNL1        0.3323
     17 N          17.6026   70.5056   -8.8338 N.ar    1  UNL1       -0.2743
     18 C          18.8585   70.4600   -9.3230 C.ar    1  UNL1        0.2626
     19 C          19.9531   70.6599   -8.4479 C.ar    1  UNL1        0.0795
     20 C          19.7141   70.8972   -7.1409 C.ar    1  UNL1        0.0869
     21 O          16.2559   70.7786   -7.0975 O.2     1  UNL1       -0.2464
     22 O          19.0490   70.2483  -10.5077 O.2     1  UNL1       -0.2670
     23 H          16.8480   70.3691   -9.4271 H       1  UNL1        0.1734
     24 O          22.3696   72.0682    0.4489 O.3     1  UNL1       -0.2703
     25 P          22.0834   73.6526    0.4702 P.3     1  UNL1        0.2208
     26 O          20.5047   73.9098    0.6585 O.3     1  UNL1       -0.4371
     27 O          22.8208   74.2724    1.5928 O.2     1  UNL1       -0.5170
     28 O          22.5719   74.3048   -0.9186 O.3     1  UNL1       -0.2865
     29 C          23.7573   73.8893   -1.5993 C.3     1  UNL1        0.2611
     30 C          24.7681   75.0386   -1.6137 C.3     1  UNL1        0.1582
     31 C          24.1754   76.2186   -2.3900 C.3     1  UNL1        0.1625
     32 C          23.8054   75.7533   -3.8010 C.3     1  UNL1        0.1686
     33 C          22.8315   74.5761   -3.7022 C.3     1  UNL1        0.1760
     34 O          25.1409   77.2694   -2.4715 O.3     1  UNL1       -0.3801
     35 O          24.9855   75.3407   -4.4927 O.3     1  UNL1       -0.3794
     36 O          23.4321   73.5254   -2.9425 O.3     1  UNL1       -0.3263
     37 H          24.8319   78.0507   -2.9504 H       1  UNL1        0.2105
     38 H          24.8254   75.0318   -5.3954 H       1  UNL1        0.2105
     39 C          26.3253   75.7187    0.1328 C.2     1  UNL1        0.2231
     40 C          26.6236   76.1450    1.5462 C.3     1  UNL1        0.0946
     41 N          25.0574   75.4530   -0.2385 N.am    1  UNL1       -0.2994
     42 O          27.2269   75.6142   -0.6725 O.2     1  UNL1       -0.2751
     43 H          24.3364   75.5355    0.4053 H       1  UNL1        0.1496
     44 C          22.5033   74.0668   -5.1070 C.3     1  UNL1        0.1693
     45 O          22.5074   75.1623   -6.0247 O.3     1  UNL1       -0.3794
     46 H          22.3066   74.9125   -6.9370 H       1  UNL1        0.2105
@<TRIPOS>BOND
     1    29    30    1
     2    30    41    1
     3    30    31    1
     4    31    34    1
     5    31    32    1
     6    32    35    1
     7    32    33    1
     8    33    36    1
     9    33    44    1
    10    39    40    1
    11    39    42    2
    12    39    41   am
    13    41    43    1
    14    29    28    1
    15    34    37    1
    16    35    38    1
    17    29    36    1
    18    44    45    1
    19    45    46    1
    20    15     6    1
    21    15    16   ar
    22    16    21    2
    23    16    17   ar
    24    17    23    1
    25    17    18   ar
    26    18    19   ar
    27    19    20   ar
    28    15    20   ar
    29    18    22    2
    30     6     7    1
    31     6    11    1
    32     7     9    1
    33     7     8    1
    34     8    13    1
    35     9    10    1
    36     9    12    1
    37    10     5    1
    38    10    11    1
    39    12    14    1
    40     5     4    1
    41     4     1    1
    42     1     2    1
    43     1    24    1
    44     1     3    2
    45    24    25    1
    46    28    25    1
    47    25    26    1
    48    25    27    2
@<TRIPOS>MOLECULE
UD2
 46 48 0 0 0
SMALL
GASTEIGER

@<TRIPOS>ATOM
      1 P          23.0342   72.1299   -2.9562 P.3     1  UNL1        0.2189
      2 O          23.4049   72.5977   -1.4612 O.3     1  UNL1       -0.4371
      3 O          23.4510   70.7238   -3.1514 O.2     1  UNL1       -0.5170
      4 O          21.4440   72.2542   -3.1786 O.3     1  UNL1       -0.3112
      5 C          20.5105   71.3037   -2.6623 C.3     1  UNL1        0.1811
      6 C          18.1342   71.1952   -5.3601 C.3     1  UNL1        0.2383
      7 C          17.9037   69.8734   -4.5843 C.3     1  UNL1        0.1895
      8 O          16.5386   69.4608   -4.6741 O.3     1  UNL1       -0.3779
      9 C          18.2634   70.2803   -3.1343 C.3     1  UNL1        0.1713
     10 C          19.1396   71.5364   -3.3021 C.3     1  UNL1        0.1764
     11 O          19.2910   71.7672   -4.7118 O.3     1  UNL1       -0.3308
     12 O          17.0809   70.5899   -2.3950 O.3     1  UNL1       -0.3794
     13 H          16.3444   68.6381   -4.2049 H       1  UNL1        0.2106
     14 H          16.4648   69.8499   -2.3092 H       1  UNL1        0.2105
     15 N          18.4153   70.9227   -6.7714 N.ar    1  UNL1       -0.2551
     16 C          17.3975   70.7962   -7.6413 C.ar    1  UNL1        0.3323
     17 N          17.6265   70.5455   -8.9439 N.ar    1  UNL1       -0.2743
     18 C          18.8896   70.4184   -9.3988 C.ar    1  UNL1        0.2626
     19 C          19.9707   70.5502   -8.4943 C.ar    1  UNL1        0.0795
     20 C          19.7120   70.8057   -7.1946 C.ar    1  UNL1        0.0869
     21 O          16.2534   70.9086   -7.2452 O.2     1  UNL1       -0.2464
     22 O          19.0983   70.1919  -10.5776 O.2     1  UNL1       -0.2670
     23 H          16.8810   70.4561   -9.5574 H       1  UNL1        0.1734
     24 O          23.7988   73.0689   -4.0178 O.3     1  UNL1       -0.2703
     25 P          24.3170   74.5933   -3.9920 P.3     1  UNL1        0.2208
     26 O          23.9082   75.3220   -5.3688 O.3     1  UNL1       -0.4371
     27 O          23.6965   75.3063   -2.8540 O.2     1  UNL1       -0.5170
     28 O          25.9188   74.6128   -3.8290 O.3     1  UNL1       -0.2865
     29 C          26.6971   75.8067   -3.9304 C.3     1  UNL1        0.2611
     30 C          28.1507   75.4442   -4.2438 C.3     1  UNL1        0.1582
     31 C          28.7210   74.6138   -3.0899 C.3     1  UNL1        0.1625
     32 C          28.5889   75.4096   -1.7885 C.3     1  UNL1        0.1686
     33 C          27.1179   75.7735   -1.5697 C.3     1  UNL1        0.1760
     34 O          30.1001   74.3330   -3.3400 O.3     1  UNL1       -0.3801
     35 O          29.3686   76.6035   -1.8774 O.3     1  UNL1       -0.3794
     36 O          26.6409   76.5180   -2.6922 O.3     1  UNL1       -0.3263
     37 H          30.5260   73.8085   -2.6482 H       1  UNL1        0.2105
     38 H          29.3310   77.1585   -1.0858 H       1  UNL1        0.2105
     39 C          29.1849   74.8875   -6.3789 C.2     1  UNL1        0.2231
     40 C          29.2407   74.0848   -7.6521 C.3     1  UNL1        0.0946
     41 N          28.2042   74.6631   -5.4822 N.am    1  UNL1       -0.2994
     42 O          30.0232   75.7369   -6.1599 O.2     1  UNL1       -0.2751
     43 H          27.5332   73.9848   -5.6574 H       1  UNL1        0.1496
     44 C          26.9853   76.6199   -0.3022 C.3     1  UNL1        0.1693
     45 O          27.0517   78.0058   -0.6450 O.3     1  UNL1       -0.3794
     46 H          26.9743   78.6028    0.1117 H       1  UNL1        0.2105
@<TRIPOS>BOND
     1    29    30    1
     2    30    41    1
     3    30    31    1
     4    31    34    1
     5    31    32    1
     6    32    35    1
     7    32    33    1
     8    33    36    1
     9    33    44    1
    10    39    40    1
    11    39    42    2
    12    39    41   am
    13    41    43    1
    14    29    28    1
    15    34    37    1
    16    35    38    1
    17    29    36    1
    18    44    45    1
    19    45    46    1
    20    15     6    1
    21    15    16   ar
    22    16    21    2
    23    16    17   ar
    24    17    23    1
    25    17    18   ar
    26    18    19   ar
    27    19    20   ar
    28    15    20   ar
    29    18    22    2
    30     6     7    1
    31     6    11    1
    32     7     9    1
    33     7     8    1
    34     8    13    1
    35     9    10    1
    36     9    12    1
    37    10     5    1
    38    10    11    1
    39    12    14    1
    40     5     4    1
    41     4     1    1
    42     1     2    1
    43     1    24    1
    44     1     3    2
    45    24    25    1
    46    28    25    1
    47    25    26    1
    48    25    27    2
@<TRIPOS>MOLECULE
UD2
 46 48 0 0 0
SMALL
GASTEIGER

@<TRIPOS>ATOM
      1 P          20.2832   70.7420   -3.3487 P.3     1  UNL1        0.2189
      2 O          20.6181   72.1242   -4.1030 O.3     1  UNL1       -0.4371
      3 O          21.4606   69.8483   -3.4095 O.2     1  UNL1       -0.5170
      4 O          19.9185   71.0455   -1.8097 O.3     1  UNL1       -0.3112
      5 C          20.2782   72.2612   -1.1509 C.3     1  UNL1        0.1811
      6 C          22.7468   72.2848    1.4648 C.3     1  UNL1        0.2383
      7 C          22.3234   70.7989    1.3419 C.3     1  UNL1        0.1895
      8 O          23.4075   69.9303    1.6765 O.3     1  UNL1       -0.3779
      9 C          21.9679   70.6852   -0.1608 C.3     1  UNL1        0.1713
     10 C          21.6992   72.1387   -0.5951 C.3     1  UNL1        0.1764
     11 O          21.8413   72.9667    0.5701 O.3     1  UNL1       -0.3308
     12 O          23.0660   70.1387   -0.8932 O.3     1  UNL1       -0.3794
     13 H          23.1916   68.9899    1.6152 H       1  UNL1        0.2106
     14 H          23.3167   69.2460   -0.6199 H       1  UNL1        0.2105
     15 N          22.5699   72.7595    2.8390 N.ar    1  UNL1       -0.2551
     16 C          21.4019   72.5491    3.4716 C.ar    1  UNL1        0.3323
     17 N          21.2114   72.9747    4.7345 N.ar    1  UNL1       -0.2743
     18 C          22.1975   73.6214    5.3887 C.ar    1  UNL1        0.2626
     19 C          23.4326   73.8488    4.7353 C.ar    1  UNL1        0.0795
     20 C          23.5973   73.4075    3.4705 C.ar    1  UNL1        0.0869
     21 O          20.5040   71.9672    2.8940 O.2     1  UNL1       -0.2464
     22 O          22.0266   74.0067    6.5319 O.2     1  UNL1       -0.2670
     23 H          20.3626   72.8157    5.1754 H       1  UNL1        0.1734
     24 O          19.0300   70.0289   -4.0659 O.3     1  UNL1       -0.2703
     25 P          17.5375   70.5037   -4.4401 P.3     1  UNL1        0.2208
     26 O          16.7046   69.2507   -5.0146 O.3     1  UNL1       -0.4371
     27 O          16.8678   71.0270   -3.2294 O.2     1  UNL1       -0.5170
     28 O          17.6069   71.6605   -5.5580 O.3     1  UNL1       -0.2865
     29 C          16.4793   72.0539   -6.3422 C.3     1  UNL1        0.2611
     30 C          16.9452   72.4484   -7.7457 C.3     1  UNL1        0.1582
     31 C          17.8836   73.6547   -7.6426 C.3     1  UNL1        0.1625
     32 C          17.1530   74.7968   -6.9311 C.3     1  UNL1        0.1686
     33 C          16.6791   74.3116   -5.5585 C.3     1  UNL1        0.1760
     34 O          18.2655   74.0757   -8.9541 O.3     1  UNL1       -0.3801
     35 O          16.0261   75.2018   -7.7104 O.3     1  UNL1       -0.3794
     36 O          15.8357   73.1700   -5.7238 O.3     1  UNL1       -0.3263
     37 H          18.8618   74.8370   -8.9643 H       1  UNL1        0.2105
     38 H          15.5149   75.9235   -7.3183 H       1  UNL1        0.2105
     39 C          18.9947   71.2201   -8.2238 C.2     1  UNL1        0.2231
     40 C          19.7281   70.0649   -8.8533 C.3     1  UNL1        0.0946
     41 N          17.6579   71.3246   -8.3586 N.am    1  UNL1       -0.2994
     42 O          19.6074   72.0575   -7.5948 O.2     1  UNL1       -0.2751
     43 H          17.1678   70.6558   -8.8622 H       1  UNL1        0.1496
     44 C          15.8962   75.4285   -4.8655 C.3     1  UNL1        0.1693
     45 O          14.7228   74.8830   -4.2588 O.3     1  UNL1       -0.3794
     46 H          14.1768   75.5360   -3.8000 H       1  UNL1        0.2105
@<TRIPOS>BOND
     1    29    30    1
     2    30    41    1
     3    30    31    1
     4    31    34    1
     5    31    32    1
     6    32    35    1
     7    32    33    1
     8    33    36    1
     9    33    44    1
    10    39    40    1
    11    39    42    2
    12    39    41   am
    13    41    43    1
    14    29    28    1
    15    34    37    1
    16    35    38    1
    17    29    36    1
    18    44    45    1
    19    45    46    1
    20    15     6    1
    21    15    16   ar
    22    16    21    2
    23    16    17   ar
    24    17    23    1
    25    17    18   ar
    26    18    19   ar
    27    19    20   ar
    28    15    20   ar
    29    18    22    2
    30     6     7    1
    31     6    11    1
    32     7     9    1
    33     7     8    1
    34     8    13    1
    35     9    10    1
    36     9    12    1
    37    10     5    1
    38    10    11    1
    39    12    14    1
    40     5     4    1
    41     4     1    1
    42     1     2    1
    43     1    24    1
    44     1     3    2
    45    24    25    1
    46    28    25    1
    47    25    26    1
    48    25    27    2
@<TRIPOS>MOLECULE
UD2
 46 48 0 0 0
SMALL
GASTEIGER

@<TRIPOS>ATOM
      1 P          22.7342   71.9720   -3.2774 P.3     1  UNL1        0.2189
      2 O          23.5276   70.5716   -3.2516 O.3     1  UNL1       -0.4371
      3 O          23.2073   72.7868   -4.4181 O.2     1  UNL1       -0.5170
      4 O          21.1562   71.6918   -3.4359 O.3     1  UNL1       -0.3112
      5 C          20.1675   72.3377   -2.6317 C.3     1  UNL1        0.1811
      6 C          17.9246   71.3952   -5.2808 C.3     1  UNL1        0.2383
      7 C          18.0508   70.1223   -4.4056 C.3     1  UNL1        0.1895
      8 O          16.8465   69.3544   -4.4456 O.3     1  UNL1       -0.3779
      9 C          18.2792   70.7186   -2.9951 C.3     1  UNL1        0.1713
     10 C          18.7885   72.1468   -3.2680 C.3     1  UNL1        0.1764
     11 O          18.8820   72.3027   -4.6929 O.3     1  UNL1       -0.3308
     12 O          17.0521   70.7559   -2.2646 O.3     1  UNL1       -0.3794
     13 H          16.8763   68.5475   -3.9139 H       1  UNL1        0.2106
     14 H          16.6557   69.8869   -2.1154 H       1  UNL1        0.2105
     15 N          18.2777   71.1021   -6.6716 N.ar    1  UNL1       -0.2551
     16 C          17.3131   70.7710   -7.5484 C.ar    1  UNL1        0.3323
     17 N          17.6088   70.4964   -8.8327 N.ar    1  UNL1       -0.2743
     18 C          18.8860   70.5516   -9.2619 C.ar    1  UNL1        0.2626
     19 C          19.9113   70.8997   -8.3499 C.ar    1  UNL1        0.0795
     20 C          19.5857   71.1741   -7.0692 C.ar    1  UNL1        0.0869
     21 O          16.1571   70.7176   -7.1755 O.2     1  UNL1       -0.2464
     22 O          19.1549   70.3036  -10.4241 O.2     1  UNL1       -0.2670
     23 H          16.9013   70.2582   -9.4515 H       1  UNL1        0.1734
     24 O          23.0020   72.7663   -1.9024 O.3     1  UNL1       -0.2703
     25 P          23.3052   74.3061   -1.5418 P.3     1  UNL1        0.2208
     26 O          22.2766   75.2558   -2.3378 O.3     1  UNL1       -0.4371
     27 O          23.1417   74.5135   -0.0862 O.2     1  UNL1       -0.5170
     28 O          24.8140   74.6704   -1.9701 O.3     1  UNL1       -0.2865
     29 C          25.2359   75.9999   -2.2794 C.3     1  UNL1        0.2611
     30 C          25.6819   76.0675   -3.7420 C.3     1  UNL1        0.1582
     31 C          26.8837   75.1394   -3.9437 C.3     1  UNL1        0.1625
     32 C          27.9988   75.5483   -2.9773 C.3     1  UNL1        0.1686
     33 C          27.4633   75.5007   -1.5438 C.3     1  UNL1        0.1760
     34 O          27.3529   75.2518   -5.2893 O.3     1  UNL1       -0.3801
     35 O          28.4321   76.8753   -3.2820 O.3     1  UNL1       -0.3794
     36 O          26.3284   76.3618   -1.4321 O.3     1  UNL1       -0.3263
     37 H          28.1141   74.6895   -5.4882 H       1  UNL1        0.2105
     38 H          29.1388   77.2007   -2.7070 H       1  UNL1        0.2105
     39 C          24.2784   76.3496   -5.7138 C.2     1  UNL1        0.2231
     40 C          23.1474   75.9099   -6.6062 C.3     1  UNL1        0.0946
     41 N          24.5816   75.6394   -4.6094 N.am    1  UNL1       -0.2994
     42 O          24.9171   77.3438   -5.9890 O.2     1  UNL1       -0.2751
     43 H          24.0705   74.8450   -4.3885 H       1  UNL1        0.1496
     44 C          28.5537   75.9654   -0.5766 C.3     1  UNL1        0.1693
     45 O          28.4873   77.3853   -0.4293 O.3     1  UNL1       -0.3794
     46 H          29.1513   77.7505    0.1713 H       1  UNL1        0.2105
@<TRIPOS>BOND
     1    29    30    1
     2    30    41    1
     3    30    31    1
     4    31    34    1
     5    31    32    1
     6    32    35    1
     7    32    33    1
     8    33    36    1
     9    33    44    1
    10    39    40    1
    11    39    42    2
    12    39    41   am
    13    41    43    1
    14    29    28    1
    15    34    37    1
    16    35    38    1
    17    29    36    1
    18    44    45    1
    19    45    46    1
    20    15     6    1
    21    15    16   ar
    22    16    21    2
    23    16    17   ar
    24    17    23    1
    25    17    18   ar
    26    18    19   ar
    27    19    20   ar
    28    15    20   ar
    29    18    22    2
    30     6     7    1
    31     6    11    1
    32     7     9    1
    33     7     8    1
    34     8    13    1
    35     9    10    1
    36     9    12    1
    37    10     5    1
    38    10    11    1
    39    12    14    1
    40     5     4    1
    41     4     1    1
    42     1     2    1
    43     1    24    1
    44     1     3    2
    45    24    25    1
    46    28    25    1
    47    25    26    1
    48    25    27    2
@<TRIPOS>MOLECULE
UD2
 46 48 0 0 0
SMALL
GASTEIGER

@<TRIPOS>ATOM
      1 P          23.0381   72.3246   -3.2584 P.3     1  UNL1        0.2189
      2 O          23.8554   72.9247   -4.5087 O.3     1  UNL1       -0.4371
      3 O          23.5336   70.9649   -2.9512 O.2     1  UNL1       -0.5170
      4 O          23.2472   73.2748   -1.9750 O.3     1  UNL1       -0.3112
      5 C          22.2279   73.4979   -0.9989 C.3     1  UNL1        0.1811
      6 C          22.7475   73.1672    2.5448 C.3     1  UNL1        0.2383
      7 C          21.2587   72.7923    2.3325 C.3     1  UNL1        0.1895
      8 O          20.8308   71.8340    3.3022 O.3     1  UNL1       -0.3779
      9 C          21.2785   72.1718    0.9141 C.3     1  UNL1        0.1713
     10 C          22.5678   72.7262    0.2786 C.3     1  UNL1        0.1764
     11 O          23.1718   73.6093    1.2370 O.3     1  UNL1       -0.3308
     12 O          21.3325   70.7465    0.9938 O.3     1  UNL1       -0.3794
     13 H          19.9057   71.5682    3.2113 H       1  UNL1        0.2106
     14 H          20.5725   70.3476    1.4385 H       1  UNL1        0.2105
     15 N          22.8723   74.2510    3.5219 N.ar    1  UNL1       -0.2551
     16 C          22.3544   75.4609    3.2448 C.ar    1  UNL1        0.3323
     17 N          22.4545   76.4753    4.1242 N.ar    1  UNL1       -0.2743
     18 C          23.0788   76.2905    5.3052 C.ar    1  UNL1        0.2626
     19 C          23.6277   75.0218    5.6103 C.ar    1  UNL1        0.0795
     20 C          23.5090   74.0217    4.7119 C.ar    1  UNL1        0.0869
     21 O          21.7886   75.6418    2.1839 O.2     1  UNL1       -0.2464
     22 O          23.1698   77.2077    6.1021 O.2     1  UNL1       -0.2670
     23 H          22.0766   77.3416    3.9081 H       1  UNL1        0.1734
     24 O          21.4714   72.2554   -3.6244 O.3     1  UNL1       -0.2703
     25 P          20.3227   71.1462   -3.4162 P.3     1  UNL1        0.2208
     26 O          21.0014   69.6939   -3.2621 O.3     1  UNL1       -0.4371
     27 O          19.5488   71.4604   -2.1952 O.2     1  UNL1       -0.5170
     28 O          19.3389   71.1468   -4.6908 O.3     1  UNL1       -0.2865
     29 C          19.2263   72.2540   -5.5868 C.3     1  UNL1        0.2611
     30 C          17.7479   72.5551   -5.8441 C.3     1  UNL1        0.1582
     31 C          17.0988   71.3428   -6.5190 C.3     1  UNL1        0.1625
     32 C          17.8589   71.0223   -7.8089 C.3     1  UNL1        0.1686
     33 C          19.3335   70.7802   -7.4756 C.3     1  UNL1        0.1760
     34 O          15.7360   71.6424   -6.8296 O.3     1  UNL1       -0.3801
     35 O          17.7477   72.1217   -8.7146 O.3     1  UNL1       -0.3794
     36 O          19.8682   71.9333   -6.8227 O.3     1  UNL1       -0.3263
     37 H          15.2624   70.9170   -7.2593 H       1  UNL1        0.2105
     38 H          18.2075   71.9877   -9.5552 H       1  UNL1        0.2105
     39 C          16.4777   71.8224   -3.8980 C.2     1  UNL1        0.2231
     40 C          15.7857   72.0996   -2.5892 C.3     1  UNL1        0.0946
     41 N          17.0748   72.8256   -4.5712 N.am    1  UNL1       -0.2994
     42 O          16.4977   70.6954   -4.3470 O.2     1  UNL1       -0.2751
     43 H          17.0581   73.7270   -4.2131 H       1  UNL1        0.1496
     44 C          20.1114   70.5180   -8.7666 C.3     1  UNL1        0.1693
     45 O          20.5289   71.7619   -9.3330 O.3     1  UNL1       -0.3794
     46 H          21.0289   71.6720  -10.1557 H       1  UNL1        0.2105
@<TRIPOS>BOND
     1    29    30    1
     2    30    41    1
     3    30    31    1
     4    31    34    1
     5    31    32    1
     6    32    35    1
     7    32    33    1
     8    33    36    1
     9    33    44    1
    10    39    40    1
    11    39    42    2
    12    39    41   am
    13    41    43    1
    14    29    28    1
    15    34    37    1
    16    35    38    1
    17    29    36    1
    18    44    45    1
    19    45    46    1
    20    15     6    1
    21    15    16   ar
    22    16    21    2
    23    16    17   ar
    24    17    23    1
    25    17    18   ar
    26    18    19   ar
    27    19    20   ar
    28    15    20   ar
    29    18    22    2
    30     6     7    1
    31     6    11    1
    32     7     9    1
    33     7     8    1
    34     8    13    1
    35     9    10    1
    36     9    12    1
    37    10     5    1
    38    10    11    1
    39    12    14    1
    40     5     4    1
    41     4     1    1
    42     1     2    1
    43     1    24    1
    44     1     3    2
    45    24    25    1
    46    28    25    1
    47    25    26    1
    48    25    27    2
@<TRIPOS>MOLECULE
UD2
 46 48 0 0 0
SMALL
GASTEIGER

@<TRIPOS>ATOM
      1 P          22.7682   72.0285   -3.3876 P.3     1  UNL1        0.2189
      2 O          23.9094   73.1194   -3.7025 O.3     1  UNL1       -0.4371
      3 O          23.3888   70.6939   -3.2374 O.2     1  UNL1       -0.5170
      4 O          22.0096   72.4243   -2.0232 O.3     1  UNL1       -0.3112
      5 C          22.5109   73.4030   -1.1110 C.3     1  UNL1        0.1811
      6 C          22.6785   73.3555    2.4815 C.3     1  UNL1        0.2383
      7 C          21.2493   72.8550    2.1514 C.3     1  UNL1        0.1895
      8 O          20.7890   71.9355    3.1435 O.3     1  UNL1       -0.3779
      9 C          21.4599   72.1424    0.7930 C.3     1  UNL1        0.1713
     10 C          22.7675   72.7484    0.2486 C.3     1  UNL1        0.1764
     11 O          23.2059   73.7383    1.1928 O.3     1  UNL1       -0.3308
     12 O          21.6028   70.7341    0.9854 O.3     1  UNL1       -0.3794
     13 H          19.8990   71.5945    2.9815 H       1  UNL1        0.2106
     14 H          20.8296   70.3099    1.3813 H       1  UNL1        0.2105
     15 N          22.6257   74.5099    3.3813 N.ar    1  UNL1       -0.2551
     16 C          23.6393   74.7354    4.2362 C.ar    1  UNL1        0.3323
     17 N          23.6173   75.7884    5.0746 N.ar    1  UNL1       -0.2743
     18 C          22.5713   76.6396    5.0677 C.ar    1  UNL1        0.2626
     19 C          21.4981   76.4149    4.1723 C.ar    1  UNL1        0.0795
     20 C          21.5485   75.3537    3.3400 C.ar    1  UNL1        0.0869
     21 O          24.5889   73.9762    4.2531 O.2     1  UNL1       -0.2464
     22 O          22.5504   77.5933    5.8257 O.2     1  UNL1       -0.2670
     23 H          24.3557   75.9356    5.6854 H       1  UNL1        0.1734
     24 O          21.7086   71.9947   -4.5997 O.3     1  UNL1       -0.2703
     25 P          21.4653   72.9160   -5.8978 P.3     1  UNL1        0.2208
     26 O          21.4446   74.4655   -5.4594 O.3     1  UNL1       -0.4371
     27 O          22.5562   72.6941   -6.8720 O.2     1  UNL1       -0.5170
     28 O          20.0554   72.5300   -6.5731 O.3     1  UNL1       -0.2865
     29 C          18.7953   72.8900   -6.0041 C.3     1  UNL1        0.2611
     30 C          17.9371   71.6350   -5.8270 C.3     1  UNL1        0.1582
     31 C          17.6666   71.0139   -7.2009 C.3     1  UNL1        0.1625
     32 C          16.9923   72.0565   -8.0967 C.3     1  UNL1        0.1686
     33 C          17.8872   73.2955   -8.1864 C.3     1  UNL1        0.1760
     34 O          16.8050   69.8831   -7.0521 O.3     1  UNL1       -0.3801
     35 O          15.7279   72.4193   -7.5392 O.3     1  UNL1       -0.3794
     36 O          18.1249   73.8055   -6.8728 O.3     1  UNL1       -0.3263
     37 H          16.5919   69.4393   -7.8844 H       1  UNL1        0.2105
     38 H          15.2440   73.0787   -8.0559 H       1  UNL1        0.2105
     39 C          17.9669   69.9123   -4.1038 C.2     1  UNL1        0.2231
     40 C          18.6980   68.9201   -3.2381 C.3     1  UNL1        0.0946
     41 N          18.6490   70.6702   -4.9850 N.am    1  UNL1       -0.2994
     42 O          16.7631   70.0299   -4.0082 O.2     1  UNL1       -0.2751
     43 H          19.6116   70.5773   -5.0611 H       1  UNL1        0.1496
     44 C          17.1933   74.3655   -9.0314 C.3     1  UNL1        0.1693
     45 O          17.7739   75.6419   -8.7557 O.3     1  UNL1       -0.3794
     46 H          17.3819   76.3696   -9.2575 H       1  UNL1        0.2105
@<TRIPOS>BOND
     1    29    30    1
     2    30    41    1
     3    30    31    1
     4    31    34    1
     5    31    32    1
     6    32    35    1
     7    32    33    1
     8    33    36    1
     9    33    44    1
    10    39    40    1
    11    39    42    2
    12    39    41   am
    13    41    43    1
    14    29    28    1
    15    34    37    1
    16    35    38    1
    17    29    36    1
    18    44    45    1
    19    45    46    1
    20    15     6    1
    21    15    16   ar
    22    16    21    2
    23    16    17   ar
    24    17    23    1
    25    17    18   ar
    26    18    19   ar
    27    19    20   ar
    28    15    20   ar
    29    18    22    2
    30     6     7    1
    31     6    11    1
    32     7     9    1
    33     7     8    1
    34     8    13    1
    35     9    10    1
    36     9    12    1
    37    10     5    1
    38    10    11    1
    39    12    14    1
    40     5     4    1
    41     4     1    1
    42     1     2    1
    43     1    24    1
    44     1     3    2
    45    24    25    1
    46    28    25    1
    47    25    26    1
    48    25    27    2
@<TRIPOS>MOLECULE
UD2
 46 48 0 0 0
SMALL
GASTEIGER

@<TRIPOS>ATOM
      1 P          22.2727   70.4011   -0.1172 P.3     1  UNL1        0.2189
      2 O          21.2994   70.8414    1.0871 O.3     1  UNL1       -0.4371
      3 O          23.2968   69.4632    0.3931 O.2     1  UNL1       -0.5170
      4 O          21.4087   69.6783   -1.2682 O.3     1  UNL1       -0.3112
      5 C          21.3613   70.1498   -2.6161 C.3     1  UNL1        0.1811
      6 C          18.6300   70.6554   -4.9011 C.3     1  UNL1        0.2383
      7 C          18.4937   69.1785   -4.4515 C.3     1  UNL1        0.1895
      8 O          17.1244   68.7700   -4.4504 O.3     1  UNL1       -0.3779
      9 C          19.0577   69.2239   -3.0102 C.3     1  UNL1        0.1713
     10 C          19.9174   70.5020   -2.9824 C.3     1  UNL1        0.1764
     11 O          19.8732   71.0761   -4.2984 O.3     1  UNL1       -0.3308
     12 O          17.9941   69.3152   -2.0609 O.3     1  UNL1       -0.3794
     13 H          16.9874   67.8530   -4.1766 H       1  UNL1        0.2106
     14 H          17.3868   68.5633   -2.0759 H       1  UNL1        0.2105
     15 N          18.7077   70.7451   -6.3609 N.ar    1  UNL1       -0.2551
     16 C          17.5775   70.7405   -7.0899 C.ar    1  UNL1        0.3323
     17 N          17.6190   70.8215   -8.4330 N.ar    1  UNL1       -0.2743
     18 C          18.8036   70.9110   -9.0712 C.ar    1  UNL1        0.2626
     19 C          20.0011   70.9179   -8.3163 C.ar    1  UNL1        0.0795
     20 C          19.9296   70.8398   -6.9708 C.ar    1  UNL1        0.0869
     21 O          16.5023   70.6605   -6.5278 O.2     1  UNL1       -0.2464
     22 O          18.8425   70.9848  -10.2868 O.2     1  UNL1       -0.2670
     23 H          16.7947   70.8157   -8.9434 H       1  UNL1        0.1734
     24 O          22.9948   71.7046   -0.7279 O.3     1  UNL1       -0.2703
     25 P          22.8444   73.2877   -0.4746 P.3     1  UNL1        0.2208
     26 O          21.3814   73.7693   -0.9450 O.3     1  UNL1       -0.4371
     27 O          23.0185   73.5757    0.9660 O.2     1  UNL1       -0.5170
     28 O          23.9665   74.0751   -1.3192 O.3     1  UNL1       -0.2865
     29 C          23.9293   75.4868   -1.5365 C.3     1  UNL1        0.2611
     30 C          24.1227   75.7799   -3.0262 C.3     1  UNL1        0.1582
     31 C          25.5032   75.2786   -3.4614 C.3     1  UNL1        0.1625
     32 C          26.5738   75.9469   -2.5946 C.3     1  UNL1        0.1686
     33 C          26.2859   75.6472   -1.1211 C.3     1  UNL1        0.1760
     34 O          25.7219   75.6139   -4.8337 O.3     1  UNL1       -0.3801
     35 O          26.5488   77.3593   -2.8089 O.3     1  UNL1       -0.3794
     36 O          24.9756   76.1110   -0.7895 O.3     1  UNL1       -0.3263
     37 H          26.5786   75.3252   -5.1770 H       1  UNL1        0.2105
     38 H          27.2025   77.8482   -2.2897 H       1  UNL1        0.2105
     39 C          23.3169   73.8569   -4.2874 C.2     1  UNL1        0.2231
     40 C          22.2513   73.1484   -5.0817 C.3     1  UNL1        0.0946
     41 N          23.0857   75.0915   -3.7991 N.am    1  UNL1       -0.2994
     42 O          24.3844   73.3162   -4.0867 O.2     1  UNL1       -0.2751
     43 H          22.2328   75.5246   -3.9601 H       1  UNL1        0.1496
     44 C          27.3169   76.3609   -0.2447 C.3     1  UNL1        0.1693
     45 O          27.7529   75.4800    0.7927 O.3     1  UNL1       -0.3794
     46 H          28.4090   75.8671    1.3882 H       1  UNL1        0.2105
@<TRIPOS>BOND
     1    29    30    1
     2    30    41    1
     3    30    31    1
     4    31    34    1
     5    31    32    1
     6    32    35    1
     7    32    33    1
     8    33    36    1
     9    33    44    1
    10    39    40    1
    11    39    42    2
    12    39    41   am
    13    41    43    1
    14    29    28    1
    15    34    37    1
    16    35    38    1
    17    29    36    1
    18    44    45    1
    19    45    46    1
    20    15     6    1
    21    15    16   ar
    22    16    21    2
    23    16    17   ar
    24    17    23    1
    25    17    18   ar
    26    18    19   ar
    27    19    20   ar
    28    15    20   ar
    29    18    22    2
    30     6     7    1
    31     6    11    1
    32     7     9    1
    33     7     8    1
    34     8    13    1
    35     9    10    1
    36     9    12    1
    37    10     5    1
    38    10    11    1
    39    12    14    1
    40     5     4    1
    41     4     1    1
    42     1     2    1
    43     1    24    1
    44     1     3    2
    45    24    25    1
    46    28    25    1
    47    25    26    1
    48    25    27    2
@<TRIPOS>MOLECULE
UD2
 46 48 0 0 0
SMALL
GASTEIGER

@<TRIPOS>ATOM
      1 P          21.5136   70.6152   -0.7181 P.3     1  UNL1        0.2189
      2 O          22.7042   70.4179   -1.7834 O.3     1  UNL1       -0.4371
      3 O          21.5270   69.4968    0.2504 O.2     1  UNL1       -0.5170
      4 O          21.7203   72.0067    0.0660 O.3     1  UNL1       -0.3112
      5 C          20.7324   73.0385    0.0916 C.3     1  UNL1        0.1811
      6 C          22.1199   75.1286    2.6689 C.3     1  UNL1        0.2383
      7 C          23.3468   74.4247    2.0355 C.3     1  UNL1        0.1895
      8 O          24.5056   75.2578    2.1060 O.3     1  UNL1       -0.3779
      9 C          22.8912   74.2352    0.5678 C.3     1  UNL1        0.1713
     10 C          21.3548   74.3267    0.6357 C.3     1  UNL1        0.1764
     11 O          20.9970   74.4971    2.0164 O.3     1  UNL1       -0.3308
     12 O          23.4188   75.2757   -0.2566 O.3     1  UNL1       -0.3794
     13 H          25.2996   74.8609    1.7229 H       1  UNL1        0.2106
     14 H          24.3846   75.3018   -0.2884 H       1  UNL1        0.2105
     15 N          22.0780   74.8912    4.1135 N.ar    1  UNL1       -0.2551
     16 C          21.9371   73.6373    4.5790 C.ar    1  UNL1        0.3323
     17 N          21.8952   73.3899    5.9016 N.ar    1  UNL1       -0.2743
     18 C          21.9966   74.4035    6.7853 C.ar    1  UNL1        0.2626
     19 C          22.1464   75.7283    6.3092 C.ar    1  UNL1        0.0795
     20 C          22.1895   75.9468    4.9781 C.ar    1  UNL1        0.0869
     21 O          21.8447   72.7136    3.7938 O.2     1  UNL1       -0.2464
     22 O          21.9593   74.1809    7.9826 O.2     1  UNL1       -0.2670
     23 H          21.7920   72.4800    6.2202 H       1  UNL1        0.1734
     24 O          20.1007   70.6400   -1.4904 O.3     1  UNL1       -0.2703
     25 P          19.4794   69.7944   -2.7118 P.3     1  UNL1        0.2208
     26 O          20.6472   68.9444   -3.4242 O.3     1  UNL1       -0.4371
     27 O          18.4430   68.8727   -2.1973 O.2     1  UNL1       -0.5170
     28 O          18.8196   70.8016   -3.7808 O.3     1  UNL1       -0.2865
     29 C          17.6546   70.4760   -4.5411 C.3     1  UNL1        0.2611
     30 C          17.6568   71.2742   -5.8471 C.3     1  UNL1        0.1582
     31 C          17.5966   72.7698   -5.5213 C.3     1  UNL1        0.1625
     32 C          16.3520   73.0470   -4.6737 C.3     1  UNL1        0.1686
     33 C          16.4002   72.1802   -3.4126 C.3     1  UNL1        0.1760
     34 O          17.5241   73.5201   -6.7358 O.3     1  UNL1       -0.3801
     35 O          15.1804   72.7298   -5.4274 O.3     1  UNL1       -0.3794
     36 O          16.4865   70.8035   -3.7858 O.3     1  UNL1       -0.3263
     37 H          17.4841   74.4774   -6.6044 H       1  UNL1        0.2105
     38 H          14.3523   72.8809   -4.9506 H       1  UNL1        0.2105
     39 C          18.8236   70.7482   -7.9206 C.2     1  UNL1        0.2231
     40 C          20.0836   70.4511   -8.6905 C.3     1  UNL1        0.0946
     41 N          18.8828   70.9850   -6.5953 N.am    1  UNL1       -0.2994
     42 O          17.7544   70.7745   -8.4935 O.2     1  UNL1       -0.2751
     43 H          19.7374   70.9632   -6.1367 H       1  UNL1        0.1496
     44 C          15.1309   72.4071   -2.5892 C.3     1  UNL1        0.1693
     45 O          14.0141   72.5623   -3.4673 O.3     1  UNL1       -0.3794
     46 H          13.1734   72.7102   -3.0129 H       1  UNL1        0.2105
@<TRIPOS>BOND
     1    29    30    1
     2    30    41    1
     3    30    31    1
     4    31    34    1
     5    31    32    1
     6    32    35    1
     7    32    33    1
     8    33    36    1
     9    33    44    1
    10    39    40    1
    11    39    42    2
    12    39    41   am
    13    41    43    1
    14    29    28    1
    15    34    37    1
    16    35    38    1
    17    29    36    1
    18    44    45    1
    19    45    46    1
    20    15     6    1
    21    15    16   ar
    22    16    21    2
    23    16    17   ar
    24    17    23    1
    25    17    18   ar
    26    18    19   ar
    27    19    20   ar
    28    15    20   ar
    29    18    22    2
    30     6     7    1
    31     6    11    1
    32     7     9    1
    33     7     8    1
    34     8    13    1
    35     9    10    1
    36     9    12    1
    37    10     5    1
    38    10    11    1
    39    12    14    1
    40     5     4    1
    41     4     1    1
    42     1     2    1
    43     1    24    1
    44     1     3    2
    45    24    25    1
    46    28    25    1
    47    25    26    1
    48    25    27    2
