@<TRIPOS>MOLECULE
UDP-glaA
 43 45 0 0 0
SMALL
GASTEIGER

@<TRIPOS>ATOM
      1 P          21.0051   74.0535   -5.3565 P.3     1  UNL1        0.2189
      2 O          19.7187   74.0218   -4.3759 O.3     1  UNL1       -0.4371
      3 O          21.8082   75.3203   -5.3063 O.2     1  UNL1       -0.5170
      4 O          20.4010   73.6611   -6.8045 O.3     1  UNL1       -0.3112
      5 C          21.2128   72.9191   -7.6987 C.3     1  UNL1        0.1811
      6 O          19.9581   70.9050   -8.0779 O.3     1  UNL1       -0.3308
      7 O          18.5167   72.4287  -10.2209 O.3     1  UNL1       -0.3794
      8 O          16.7457   72.4959   -8.1485 O.3     1  UNL1       -0.3779
      9 C          19.0041   72.8862   -8.9596 C.3     1  UNL1        0.1713
     10 C          18.1193   72.3804   -7.8398 C.3     1  UNL1        0.1895
     11 C          20.3180   72.1700   -8.6759 C.3     1  UNL1        0.1764
     12 C          18.5692   70.9351   -7.7102 C.3     1  UNL1        0.2383
     13 H          19.1352   72.7435  -10.9020 H       1  UNL1        0.2105
     14 H          16.5629   73.4352   -8.3233 H       1  UNL1        0.2106
     15 O          16.1932   69.8252   -6.6622 O.2     1  UNL1       -0.2464
     16 O          18.1476   69.0508   -2.5610 O.2     1  UNL1       -0.2670
     17 N          18.4291   70.4352   -6.3724 N.ar    1  UNL1       -0.2551
     18 N          17.1679   69.4408   -4.6205 N.ar    1  UNL1       -0.2743
     19 C          17.1924   69.8985   -5.9445 C.ar    1  UNL1        0.3323
     20 C          19.5103   70.4798   -5.4991 C.ar    1  UNL1        0.0869
     21 C          19.4711   70.0388   -4.2398 C.ar    1  UNL1        0.0795
     22 C          18.2167   69.4644   -3.7144 C.ar    1  UNL1        0.2626
     23 H          16.2887   69.0514   -4.2910 H       1  UNL1        0.1734
     24 O          21.8189   72.7228   -4.9299 O.3     1  UNL1       -0.2703
     25 P          22.9113   72.4761   -3.7644 P.3     1  UNL1        0.2208
     26 O          24.1741   73.3651   -4.2452 O.3     1  UNL1       -0.4371
     27 O          23.2303   71.0297   -3.5153 O.2     1  UNL1       -0.5170
     28 O          22.3248   73.2599   -2.4816 O.3     1  UNL1       -0.2858
     29 O          21.5026   71.4641   -1.1784 O.3     1  UNL1       -0.3226
     30 O          21.2104   74.6615    1.4618 O.3     1  UNL1       -0.3794
     31 O          20.4960   74.9891   -1.3468 O.3     1  UNL1       -0.3775
     32 O          20.9159   71.9182    1.5944 O.3     1  UNL1       -0.3792
     33 C          21.7364   73.8569    0.4099 C.3     1  UNL1        0.1718
     34 C          20.7153   73.7271   -0.7253 C.3     1  UNL1        0.1968
     35 C          22.0776   72.4727    0.9685 C.3     1  UNL1        0.1723
     36 C          21.2015   72.7268   -1.7815 C.3     1  UNL1        0.2706
     37 C          22.5089   71.5517   -0.1708 C.3     1  UNL1        0.1830
     38 H          21.8876   74.7141    2.1576 H       1  UNL1        0.2105
     39 H          19.8520   74.8556   -2.0626 H       1  UNL1        0.2106
     40 H          20.2932   71.6423    0.9006 H       1  UNL1        0.2106
     41 O          21.5437   69.5319    0.5311 O.co2   1  UNL1       -0.5466
     42 O          23.8207   69.6316    0.4791 O.co2   1  UNL1       -0.5466
     43 C          22.7277   70.1524    0.3098 C.2     1  UNL1        0.0799
@<TRIPOS>UNITY_ATOM_ATTR
41 1
charge -1
@<TRIPOS>BOND
     1     1     4    1
     2     1    24    1
     3     1     2    1
     4     1     3    2
     5    25    28    1
     6    25    24    1
     7    25    26    1
     8    25    27    2
     9     6    11    1
    10     6    12    1
    11    29    36    1
    12    29    37    1
    13     7     9    1
    14     7    13    1
    15     8    10    1
    16     8    14    1
    17     4     5    1
    18    28    36    1
    19    30    33    1
    20    30    38    1
    21    31    34    1
    22    31    39    1
    23    32    35    1
    24    32    40    1
    25    41    43   ar
    26    15    19    2
    27    42    43   ar
    28    16    22    2
    29    17    12    1
    30    17    19   ar
    31    17    20   ar
    32    18    19   ar
    33    18    22   ar
    34    18    23    1
    35     9    10    1
    36     9    11    1
    37    10    12    1
    38    11     5    1
    39    33    34    1
    40    33    35    1
    41    34    36    1
    42    35    37    1
    43    37    43    1
    44    20    21   ar
    45    21    22   ar
@<TRIPOS>MOLECULE
UDP-glaA
 43 45 0 0 0
SMALL
GASTEIGER

@<TRIPOS>ATOM
      1 P          22.9933   71.9111   -3.3794 P.3     1  UNL1        0.2189
      2 O          23.7481   72.9778   -4.3333 O.3     1  UNL1       -0.4371
      3 O          23.7230   70.6154   -3.1775 O.2     1  UNL1       -0.5170
      4 O          21.5141   71.7920   -4.0222 O.3     1  UNL1       -0.3112
      5 C          20.6753   70.7303   -3.5995 C.3     1  UNL1        0.1811
      6 O          18.8576   71.8680   -4.6839 O.3     1  UNL1       -0.3308
      7 O          17.1112   70.7477   -2.5191 O.3     1  UNL1       -0.3794
      8 O          16.6033   69.0805   -4.6164 O.3     1  UNL1       -0.3779
      9 C          18.2352   70.1554   -3.1699 C.3     1  UNL1        0.1713
     10 C          17.8617   69.7208   -4.5714 C.3     1  UNL1        0.1895
     11 C          19.2553   71.2541   -3.4381 C.3     1  UNL1        0.1764
     12 C          17.8730   71.0401   -5.3246 C.3     1  UNL1        0.2383
     13 H          17.4076   71.0450   -1.6420 H       1  UNL1        0.2105
     14 H          16.6461   68.3092   -4.0253 H       1  UNL1        0.2106
     15 O          16.0247   70.4980   -7.3900 O.2     1  UNL1       -0.2464
     16 O          19.3399   70.4413  -10.5907 O.2     1  UNL1       -0.2670
     17 N          18.2254   70.8795   -6.7064 N.ar    1  UNL1       -0.2551
     18 N          17.6769   70.4697   -8.9824 N.ar    1  UNL1       -0.2743
     19 C          17.2210   70.6083   -7.6648 C.ar    1  UNL1        0.3323
     20 C          19.5542   70.9905   -7.1003 C.ar    1  UNL1        0.0869
     21 C          19.9729   70.8562   -8.3606 C.ar    1  UNL1        0.0795
     22 C          18.9875   70.5711   -9.4224 C.ar    1  UNL1        0.2626
     23 H          16.9723   70.2738   -9.6883 H       1  UNL1        0.1734
     24 O          22.7339   72.7560   -2.0252 O.3     1  UNL1       -0.2703
     25 P          23.1693   74.2568   -1.6121 P.3     1  UNL1        0.2208
     26 O          22.1160   75.1836   -2.4171 O.3     1  UNL1       -0.4371
     27 O          24.6112   74.5769   -1.8845 O.2     1  UNL1       -0.5170
     28 O          22.7363   74.3967   -0.0639 O.3     1  UNL1       -0.2858
     29 O          21.5337   72.4105    0.3924 O.3     1  UNL1       -0.3226
     30 O          21.6632   74.2280    4.1286 O.3     1  UNL1       -0.3794
     31 O          21.1819   75.8110    1.7268 O.3     1  UNL1       -0.3775
     32 O          20.8780   71.7813    3.1150 O.3     1  UNL1       -0.3792
     33 C          22.0975   73.8464    2.8262 C.3     1  UNL1        0.1718
     34 C          21.1369   74.3884    1.7623 C.3     1  UNL1        0.1968
     35 C          22.1541   72.3182    2.7511 C.3     1  UNL1        0.1723
     36 C          21.4975   73.8413    0.3756 C.3     1  UNL1        0.2706
     37 C          22.4796   71.8863    1.3230 C.3     1  UNL1        0.1830
     38 H          22.2976   73.8622    4.7683 H       1  UNL1        0.2105
     39 H          20.5669   76.1067    1.0345 H       1  UNL1        0.2106
     40 H          20.2573   71.9370    2.3831 H       1  UNL1        0.2106
     41 O          23.5162   69.8181    1.7131 O.co2   1  UNL1       -0.5466
     42 O          21.5042   69.7853    0.6417 O.co2   1  UNL1       -0.5466
     43 C          22.4178   70.3994    1.1734 C.2     1  UNL1        0.0799
@<TRIPOS>UNITY_ATOM_ATTR
41 1
charge -1
@<TRIPOS>BOND
     1     1     4    1
     2     1    24    1
     3     1     2    1
     4     1     3    2
     5    25    28    1
     6    25    24    1
     7    25    26    1
     8    25    27    2
     9     6    11    1
    10     6    12    1
    11    29    36    1
    12    29    37    1
    13     7     9    1
    14     7    13    1
    15     8    10    1
    16     8    14    1
    17     4     5    1
    18    28    36    1
    19    30    33    1
    20    30    38    1
    21    31    34    1
    22    31    39    1
    23    32    35    1
    24    32    40    1
    25    41    43   ar
    26    15    19    2
    27    42    43   ar
    28    16    22    2
    29    17    12    1
    30    17    19   ar
    31    17    20   ar
    32    18    19   ar
    33    18    22   ar
    34    18    23    1
    35     9    10    1
    36     9    11    1
    37    10    12    1
    38    11     5    1
    39    33    34    1
    40    33    35    1
    41    34    36    1
    42    35    37    1
    43    37    43    1
    44    20    21   ar
    45    21    22   ar
@<TRIPOS>MOLECULE
UDP-glaA
 43 45 0 0 0
SMALL
GASTEIGER

@<TRIPOS>ATOM
      1 P          22.9664   71.6617   -2.8468 P.3     1  UNL1        0.2189
      2 O          23.7839   72.9790   -3.3092 O.3     1  UNL1       -0.4371
      3 O          23.6225   70.3565   -3.1905 O.2     1  UNL1       -0.5170
      4 O          21.4863   71.8869   -3.4584 O.3     1  UNL1       -0.3112
      5 C          20.6070   70.7774   -3.5305 C.3     1  UNL1        0.1811
      6 O          18.7831   71.8901   -4.6302 O.3     1  UNL1       -0.3308
      7 O          17.0269   70.7081   -2.5065 O.3     1  UNL1       -0.3794
      8 O          16.5867   69.0561   -4.6308 O.3     1  UNL1       -0.3779
      9 C          18.1731   70.1470   -3.1463 C.3     1  UNL1        0.1713
     10 C          17.8306   69.7216   -4.5585 C.3     1  UNL1        0.1895
     11 C          19.1741   71.2697   -3.3855 C.3     1  UNL1        0.1764
     12 C          17.8261   71.0498   -5.2960 C.3     1  UNL1        0.2383
     13 H          17.3034   71.0010   -1.6214 H       1  UNL1        0.2105
     14 H          16.6363   68.2788   -4.0482 H       1  UNL1        0.2106
     15 O          16.0288   70.4506   -7.3903 O.2     1  UNL1       -0.2464
     16 O          19.3868   70.5470  -10.5452 O.2     1  UNL1       -0.2670
     17 N          18.2032   70.9131   -6.6738 N.ar    1  UNL1       -0.2551
     18 N          17.7022   70.4985   -8.9599 N.ar    1  UNL1       -0.2743
     19 C          17.2234   70.6097   -7.6478 C.ar    1  UNL1        0.3323
     20 C          19.5319   71.0790   -7.0485 C.ar    1  UNL1        0.0869
     21 C          19.9726   70.9702   -8.3038 C.ar    1  UNL1        0.0795
     22 C          19.0137   70.6544   -9.3810 C.ar    1  UNL1        0.2626
     23 H          17.0155   70.2803   -9.6768 H       1  UNL1        0.1734
     24 O          22.7466   71.9087   -1.2638 O.3     1  UNL1       -0.2703
     25 P          22.4310   70.8738   -0.0630 P.3     1  UNL1        0.2208
     26 O          23.7120   69.8863   -0.0780 O.3     1  UNL1       -0.4371
     27 O          21.1075   70.1743   -0.1845 O.2     1  UNL1       -0.5170
     28 O          22.6031   71.7455    1.2840 O.3     1  UNL1       -0.2858
     29 O          21.7517   72.3941    3.3944 O.3     1  UNL1       -0.3226
     30 O          21.0615   75.7884    1.0962 O.3     1  UNL1       -0.3794
     31 O          20.5953   73.1303   -0.0098 O.3     1  UNL1       -0.3775
     32 O          20.8894   75.1063    3.7673 O.3     1  UNL1       -0.3792
     33 C          21.7211   74.6113    1.5541 C.3     1  UNL1        0.1718
     34 C          20.8171   73.3873    1.3729 C.3     1  UNL1        0.1968
     35 C          22.0758   74.7861    3.0333 C.3     1  UNL1        0.1723
     36 C          21.4470   72.1465    2.0179 C.3     1  UNL1        0.2706
     37 C          22.6549   73.4829    3.5797 C.3     1  UNL1        0.1830
     38 H          21.6680   76.5362    1.2321 H       1  UNL1        0.2105
     39 H          20.0277   72.3438   -0.0746 H       1  UNL1        0.2106
     40 H          20.3478   74.3026    3.8448 H       1  UNL1        0.2106
     41 O          24.1424   74.0319    5.3088 O.co2   1  UNL1       -0.5466
     42 O          22.0841   73.2622    5.9153 O.co2   1  UNL1       -0.5466
     43 C          22.8958   73.5666    5.0534 C.2     1  UNL1        0.0799
@<TRIPOS>UNITY_ATOM_ATTR
41 1
charge -1
@<TRIPOS>BOND
     1     1     4    1
     2     1    24    1
     3     1     2    1
     4     1     3    2
     5    25    28    1
     6    25    24    1
     7    25    26    1
     8    25    27    2
     9     6    11    1
    10     6    12    1
    11    29    36    1
    12    29    37    1
    13     7     9    1
    14     7    13    1
    15     8    10    1
    16     8    14    1
    17     4     5    1
    18    28    36    1
    19    30    33    1
    20    30    38    1
    21    31    34    1
    22    31    39    1
    23    32    35    1
    24    32    40    1
    25    41    43   ar
    26    15    19    2
    27    42    43   ar
    28    16    22    2
    29    17    12    1
    30    17    19   ar
    31    17    20   ar
    32    18    19   ar
    33    18    22   ar
    34    18    23    1
    35     9    10    1
    36     9    11    1
    37    10    12    1
    38    11     5    1
    39    33    34    1
    40    33    35    1
    41    34    36    1
    42    35    37    1
    43    37    43    1
    44    20    21   ar
    45    21    22   ar
@<TRIPOS>MOLECULE
UDP-glaA
 43 45 0 0 0
SMALL
GASTEIGER

@<TRIPOS>ATOM
      1 P          22.5395   71.3723   -2.1215 P.3     1  UNL1        0.2189
      2 O          21.5508   72.6228   -1.8451 O.3     1  UNL1       -0.4371
      3 O          23.5782   71.6083   -3.1786 O.2     1  UNL1       -0.5170
      4 O          21.5352   70.1328   -2.3871 O.3     1  UNL1       -0.3112
      5 C          20.7926   70.1092   -3.5942 C.3     1  UNL1        0.1811
      6 O          19.1217   71.5399   -4.5615 O.3     1  UNL1       -0.3308
      7 O          17.2764   70.5103   -2.4340 O.3     1  UNL1       -0.3794
      8 O          16.5275   69.0655   -4.6220 O.3     1  UNL1       -0.3779
      9 C          18.3051   69.8238   -3.1470 C.3     1  UNL1        0.1713
     10 C          17.8586   69.5351   -4.5646 C.3     1  UNL1        0.1895
     11 C          19.4547   70.7984   -3.3671 C.3     1  UNL1        0.1764
     12 C          18.0294   70.8894   -5.2315 C.3     1  UNL1        0.2383
     13 H          17.6213   70.7081   -1.5466 H       1  UNL1        0.2105
     14 H          16.4788   68.2573   -4.0829 H       1  UNL1        0.2106
     15 O          16.1089   70.4910   -7.2633 O.2     1  UNL1       -0.2464
     16 O          19.3308   70.4728  -10.5584 O.2     1  UNL1       -0.2670
     17 N          18.3383   70.7775   -6.6285 N.ar    1  UNL1       -0.2551
     18 N          17.7146   70.4817   -8.9027 N.ar    1  UNL1       -0.2743
     19 C          17.2998   70.5774   -7.5678 C.ar    1  UNL1        0.3323
     20 C          19.6585   70.8659   -7.0557 C.ar    1  UNL1        0.0869
     21 C          20.0378   70.7731   -8.3321 C.ar    1  UNL1        0.0795
     22 C          19.0151   70.5630   -9.3759 C.ar    1  UNL1        0.2626
     23 H          16.9850   70.3371   -9.5955 H       1  UNL1        0.1734
     24 O          23.1345   71.0494   -0.6528 O.3     1  UNL1       -0.2703
     25 P          22.4395   70.3975    0.6528 P.3     1  UNL1        0.2208
     26 O          23.6791   70.1988    1.6727 O.3     1  UNL1       -0.4371
     27 O          21.6588   69.1450    0.3745 O.2     1  UNL1       -0.5170
     28 O          21.5704   71.5960    1.2949 O.3     1  UNL1       -0.2858
     29 O          21.9500   73.9298    1.2016 O.3     1  UNL1       -0.3226
     30 O          20.0728   73.4993    4.8853 O.3     1  UNL1       -0.3794
     31 O          22.0764   71.5696    4.0089 O.3     1  UNL1       -0.3775
     32 O          20.8544   75.5961    3.2660 O.3     1  UNL1       -0.3792
     33 C          20.3813   73.2408    3.5185 C.3     1  UNL1        0.1718
     34 C          21.8481   72.8221    3.3716 C.3     1  UNL1        0.1968
     35 C          20.1142   74.5084    2.7022 C.3     1  UNL1        0.1723
     36 C          22.2351   72.7087    1.8918 C.3     1  UNL1        0.2706
     37 C          20.5725   74.2969    1.2610 C.3     1  UNL1        0.1830
     38 H          19.1378   73.7626    4.9303 H       1  UNL1        0.2105
     39 H          23.0128   71.3421    3.8817 H       1  UNL1        0.2106
     40 H          21.7935   75.4788    3.0435 H       1  UNL1        0.2106
     41 O          21.5001   76.3758    0.6941 O.co2   1  UNL1       -0.5466
     42 O          19.5341   75.8076   -0.3104 O.co2   1  UNL1       -0.5466
     43 C          20.4502   75.5527    0.4579 C.2     1  UNL1        0.0799
@<TRIPOS>UNITY_ATOM_ATTR
41 1
charge -1
@<TRIPOS>BOND
     1     1     4    1
     2     1    24    1
     3     1     2    1
     4     1     3    2
     5    25    28    1
     6    25    24    1
     7    25    26    1
     8    25    27    2
     9     6    11    1
    10     6    12    1
    11    29    36    1
    12    29    37    1
    13     7     9    1
    14     7    13    1
    15     8    10    1
    16     8    14    1
    17     4     5    1
    18    28    36    1
    19    30    33    1
    20    30    38    1
    21    31    34    1
    22    31    39    1
    23    32    35    1
    24    32    40    1
    25    41    43   ar
    26    15    19    2
    27    42    43   ar
    28    16    22    2
    29    17    12    1
    30    17    19   ar
    31    17    20   ar
    32    18    19   ar
    33    18    22   ar
    34    18    23    1
    35     9    10    1
    36     9    11    1
    37    10    12    1
    38    11     5    1
    39    33    34    1
    40    33    35    1
    41    34    36    1
    42    35    37    1
    43    37    43    1
    44    20    21   ar
    45    21    22   ar
@<TRIPOS>MOLECULE
UDP-glaA
 43 45 0 0 0
SMALL
GASTEIGER

@<TRIPOS>ATOM
      1 P          22.3746   71.3792   -2.8823 P.3     1  UNL1        0.2189
      2 O          23.6495   70.4918   -3.3344 O.3     1  UNL1       -0.4371
      3 O          21.0382   70.7605   -3.1713 O.2     1  UNL1       -0.5170
      4 O          22.6431   72.8219   -3.5621 O.3     1  UNL1       -0.3112
      5 C          21.7061   73.3104   -4.5069 C.3     1  UNL1        0.1811
      6 O          21.6832   72.0035   -6.5233 O.3     1  UNL1       -0.3308
      7 O          22.9538   74.3728   -7.8514 O.3     1  UNL1       -0.3794
      8 O          20.3439   74.5936   -8.6099 O.3     1  UNL1       -0.3779
      9 C          21.9683   74.3367   -6.8193 C.3     1  UNL1        0.1713
     10 C          20.6240   73.9376   -7.3906 C.3     1  UNL1        0.1895
     11 C          22.2879   73.1610   -5.9055 C.3     1  UNL1        0.1764
     12 C          20.7855   72.4364   -7.5587 C.3     1  UNL1        0.2383
     13 H          23.8034   74.5939   -7.4331 H       1  UNL1        0.2105
     14 H          20.3658   75.5509   -8.4390 H       1  UNL1        0.2106
     15 O          18.9790   71.9668   -9.6780 O.2     1  UNL1       -0.2464
     16 O          16.0431   69.7260   -6.9215 O.2     1  UNL1       -0.2670
     17 N          19.5422   71.7327   -7.4234 N.ar    1  UNL1       -0.2551
     18 N          17.5180   70.8517   -8.3038 N.ar    1  UNL1       -0.2743
     19 C          18.7066   71.5515   -8.5502 C.ar    1  UNL1        0.3323
     20 C          19.1614   71.2304   -6.1840 C.ar    1  UNL1        0.0869
     21 C          18.0251   70.5649   -5.9654 C.ar    1  UNL1        0.0795
     22 C          17.0960   70.3336   -7.0892 C.ar    1  UNL1        0.2626
     23 H          16.9014   70.7101   -9.0994 H       1  UNL1        0.1734
     24 O          22.6636   71.6567   -1.3155 O.3     1  UNL1       -0.2703
     25 P          22.4095   70.7364   -0.0113 P.3     1  UNL1        0.2208
     26 O          23.7099   69.7752    0.0238 O.3     1  UNL1       -0.4371
     27 O          21.0978   70.0048   -0.0197 O.2     1  UNL1       -0.5170
     28 O          22.6069   71.7365    1.2396 O.3     1  UNL1       -0.2858
     29 O          21.8370   72.3643    3.3873 O.3     1  UNL1       -0.3226
     30 O          20.9999   75.7569    1.1358 O.3     1  UNL1       -0.3794
     31 O          20.5257   73.0965    0.0389 O.3     1  UNL1       -0.3775
     32 O          20.9519   75.0620    3.8088 O.3     1  UNL1       -0.3792
     33 C          21.6955   74.5879    1.5600 C.3     1  UNL1        0.1718
     34 C          20.8025   73.3514    1.4119 C.3     1  UNL1        0.1968
     35 C          22.1104   74.7622    3.0235 C.3     1  UNL1        0.1723
     36 C          21.4774   72.1175    2.0240 C.3     1  UNL1        0.2706
     37 C          22.7313   73.4656    3.5388 C.3     1  UNL1        0.1830
     38 H          21.6007   76.5131    1.2491 H       1  UNL1        0.2105
     39 H          19.9674   72.3020   -0.0053 H       1  UNL1        0.2106
     40 H          20.4258   74.2502    3.9057 H       1  UNL1        0.2106
     41 O          24.2693   74.0636    5.2064 O.co2   1  UNL1       -0.5466
     42 O          22.2747   73.2007    5.8949 O.co2   1  UNL1       -0.5466
     43 C          23.0336   73.5471    5.0013 C.2     1  UNL1        0.0799
@<TRIPOS>UNITY_ATOM_ATTR
41 1
charge -1
@<TRIPOS>BOND
     1     1     4    1
     2     1    24    1
     3     1     2    1
     4     1     3    2
     5    25    28    1
     6    25    24    1
     7    25    26    1
     8    25    27    2
     9     6    11    1
    10     6    12    1
    11    29    36    1
    12    29    37    1
    13     7     9    1
    14     7    13    1
    15     8    10    1
    16     8    14    1
    17     4     5    1
    18    28    36    1
    19    30    33    1
    20    30    38    1
    21    31    34    1
    22    31    39    1
    23    32    35    1
    24    32    40    1
    25    41    43   ar
    26    15    19    2
    27    42    43   ar
    28    16    22    2
    29    17    12    1
    30    17    19   ar
    31    17    20   ar
    32    18    19   ar
    33    18    22   ar
    34    18    23    1
    35     9    10    1
    36     9    11    1
    37    10    12    1
    38    11     5    1
    39    33    34    1
    40    33    35    1
    41    34    36    1
    42    35    37    1
    43    37    43    1
    44    20    21   ar
    45    21    22   ar
@<TRIPOS>MOLECULE
UDP-glaA
 43 45 0 0 0
SMALL
GASTEIGER

@<TRIPOS>ATOM
      1 P          21.9073   70.7328   -1.0619 P.3     1  UNL1        0.2189
      2 O          23.1336   69.8540   -0.4777 O.3     1  UNL1       -0.4371
      3 O          20.8660   71.1167   -0.0518 O.2     1  UNL1       -0.5170
      4 O          21.3780   69.8721   -2.3247 O.3     1  UNL1       -0.3112
      5 C          20.9675   70.5639   -3.4918 C.3     1  UNL1        0.1811
      6 O          19.1692   71.8224   -4.4698 O.3     1  UNL1       -0.3308
      7 O          17.4540   70.7273   -2.2676 O.3     1  UNL1       -0.3794
      8 O          16.7799   69.1502   -4.3876 O.3     1  UNL1       -0.3779
      9 C          18.5200   70.0991   -2.9795 C.3     1  UNL1        0.1713
     10 C          18.0702   69.7252   -4.3761 C.3     1  UNL1        0.1895
     11 C          19.5836   71.1529   -3.2585 C.3     1  UNL1        0.1764
     12 C          18.1193   71.0640   -5.0926 C.3     1  UNL1        0.2383
     13 H          17.7993   70.9834   -1.3954 H       1  UNL1        0.2105
     14 H          16.8063   68.3606   -3.8201 H       1  UNL1        0.2106
     15 O          16.1926   70.4685   -7.0696 O.2     1  UNL1       -0.2464
     16 O          19.3453   70.5593  -10.4297 O.2     1  UNL1       -0.2670
     17 N          18.4087   70.9268   -6.4914 N.ar    1  UNL1       -0.2551
     18 N          17.7639   70.5136   -8.7414 N.ar    1  UNL1       -0.2743
     19 C          17.3689   70.6254   -7.4018 C.ar    1  UNL1        0.3323
     20 C          19.7115   71.0904   -6.9491 C.ar    1  UNL1        0.0869
     21 C          20.0720   70.9810   -8.2296 C.ar    1  UNL1        0.0795
     22 C          19.0466   70.6672   -9.2443 C.ar    1  UNL1        0.2626
     23 H          17.0330   70.2967   -9.4136 H       1  UNL1        0.1734
     24 O          22.6583   71.9817   -1.7630 O.3     1  UNL1       -0.2703
     25 P          22.6263   73.5624   -1.4271 P.3     1  UNL1        0.2208
     26 O          23.0875   73.6220    0.1221 O.3     1  UNL1       -0.4371
     27 O          21.3079   74.2251   -1.7074 O.2     1  UNL1       -0.5170
     28 O          23.8708   74.1802   -2.2478 O.3     1  UNL1       -0.2858
     29 O          25.6456   75.6195   -1.6333 O.3     1  UNL1       -0.3226
     30 O          24.7973   76.8849   -5.5009 O.3     1  UNL1       -0.3794
     31 O          22.6412   76.2121   -3.6557 O.3     1  UNL1       -0.3775
     32 O          26.7511   77.3803   -3.6122 O.3     1  UNL1       -0.3792
     33 C          24.9428   75.9878   -4.4034 C.3     1  UNL1        0.1718
     34 C          23.9989   76.3819   -3.2623 C.3     1  UNL1        0.1968
     35 C          26.3950   76.0285   -3.9198 C.3     1  UNL1        0.1723
     36 C          24.2690   75.5306   -2.0154 C.3     1  UNL1        0.2706
     37 C          26.5390   75.1828   -2.6564 C.3     1  UNL1        0.1830
     38 H          25.4136   76.5995   -6.1968 H       1  UNL1        0.2105
     39 H          22.0833   76.4639   -2.9006 H       1  UNL1        0.2106
     40 H          26.3166   77.6324   -2.7798 H       1  UNL1        0.2106
     41 O          28.0090   76.3972   -1.2895 O.co2   1  UNL1       -0.5466
     42 O          28.8258   74.5097   -2.2729 O.co2   1  UNL1       -0.5466
     43 C          27.9122   75.2973   -2.0748 C.2     1  UNL1        0.0799
@<TRIPOS>UNITY_ATOM_ATTR
41 1
charge -1
@<TRIPOS>BOND
     1     1     4    1
     2     1    24    1
     3     1     2    1
     4     1     3    2
     5    25    28    1
     6    25    24    1
     7    25    26    1
     8    25    27    2
     9     6    11    1
    10     6    12    1
    11    29    36    1
    12    29    37    1
    13     7     9    1
    14     7    13    1
    15     8    10    1
    16     8    14    1
    17     4     5    1
    18    28    36    1
    19    30    33    1
    20    30    38    1
    21    31    34    1
    22    31    39    1
    23    32    35    1
    24    32    40    1
    25    41    43   ar
    26    15    19    2
    27    42    43   ar
    28    16    22    2
    29    17    12    1
    30    17    19   ar
    31    17    20   ar
    32    18    19   ar
    33    18    22   ar
    34    18    23    1
    35     9    10    1
    36     9    11    1
    37    10    12    1
    38    11     5    1
    39    33    34    1
    40    33    35    1
    41    34    36    1
    42    35    37    1
    43    37    43    1
    44    20    21   ar
    45    21    22   ar
@<TRIPOS>MOLECULE
UDP-glaA
 43 45 0 0 0
SMALL
GASTEIGER

@<TRIPOS>ATOM
      1 P          22.5750   71.3045   -1.8710 P.3     1  UNL1        0.2189
      2 O          23.2712   71.4712   -3.3218 O.3     1  UNL1       -0.4371
      3 O          23.1534   70.2180   -1.0124 O.2     1  UNL1       -0.5170
      4 O          20.9990   71.1698   -2.2082 O.3     1  UNL1       -0.3112
      5 C          20.5389   71.5991   -3.4783 C.3     1  UNL1        0.1811
      6 O          18.6054   72.3558   -4.6880 O.3     1  UNL1       -0.3308
      7 O          16.9829   71.2065   -2.4435 O.3     1  UNL1       -0.3794
      8 O          16.7687   69.2925   -4.3739 O.3     1  UNL1       -0.3779
      9 C          18.1953   70.7229   -3.0213 C.3     1  UNL1        0.1713
     10 C          17.9220   70.1083   -4.3778 C.3     1  UNL1        0.1895
     11 C          19.0554   71.9263   -3.3841 C.3     1  UNL1        0.1764
     12 C          17.7644   71.3381   -5.2557 C.3     1  UNL1        0.2383
     13 H          17.2123   71.6251   -1.5964 H       1  UNL1        0.2105
     14 H          16.9059   68.5949   -3.7102 H       1  UNL1        0.2106
     15 O          16.0512   70.3889   -7.2902 O.2     1  UNL1       -0.2464
     16 O          19.4316   70.4576  -10.4217 O.2     1  UNL1       -0.2670
     17 N          18.1700   71.0996   -6.6114 N.ar    1  UNL1       -0.2551
     18 N          17.7358   70.4232   -8.8481 N.ar    1  UNL1       -0.2743
     19 C          17.2318   70.6216   -7.5559 C.ar    1  UNL1        0.3323
     20 C          19.4854   71.3388   -6.9937 C.ar    1  UNL1        0.0869
     21 C          19.9503   71.1452   -8.2299 C.ar    1  UNL1        0.0795
     22 C          19.0354   70.6466   -9.2758 C.ar    1  UNL1        0.2626
     23 H          17.0791   70.0794   -9.5436 H       1  UNL1        0.1734
     24 O          22.6862   72.7904   -1.2427 O.3     1  UNL1       -0.2703
     25 P          21.8694   73.4970   -0.0402 P.3     1  UNL1        0.2208
     26 O          21.0866   72.2625    0.6523 O.3     1  UNL1       -0.4371
     27 O          20.9816   74.6263   -0.4788 O.2     1  UNL1       -0.5170
     28 O          23.0006   73.9160    1.0317 O.3     1  UNL1       -0.2858
     29 O          21.7404   74.8651    2.7953 O.3     1  UNL1       -0.3226
     30 O          25.5707   74.7824    4.4082 O.3     1  UNL1       -0.3794
     31 O          25.1516   75.5425    1.6238 O.3     1  UNL1       -0.3775
     32 O          23.0216   75.3279    5.3218 O.3     1  UNL1       -0.3792
     33 C          24.4522   74.3639    3.6309 C.3     1  UNL1        0.1718
     34 C          24.1042   75.4244    2.5809 C.3     1  UNL1        0.1968
     35 C          23.2584   74.1377    4.5627 C.3     1  UNL1        0.1723
     36 C          22.8017   75.0639    1.8557 C.3     1  UNL1        0.2706
     37 C          22.0132   73.8268    3.7351 C.3     1  UNL1        0.1830
     38 H          25.7532   74.0838    5.0594 H       1  UNL1        0.2105
     39 H          24.8829   76.2161    0.9766 H       1  UNL1        0.2106
     40 H          22.6214   75.9930    4.7365 H       1  UNL1        0.2106
     41 O          19.6699   73.8179    3.8470 O.co2   1  UNL1       -0.5466
     42 O          20.8038   73.5779    5.8100 O.co2   1  UNL1       -0.5466
     43 C          20.7947   73.7261    4.5966 C.2     1  UNL1        0.0799
@<TRIPOS>UNITY_ATOM_ATTR
41 1
charge -1
@<TRIPOS>BOND
     1     1     4    1
     2     1    24    1
     3     1     2    1
     4     1     3    2
     5    25    28    1
     6    25    24    1
     7    25    26    1
     8    25    27    2
     9     6    11    1
    10     6    12    1
    11    29    36    1
    12    29    37    1
    13     7     9    1
    14     7    13    1
    15     8    10    1
    16     8    14    1
    17     4     5    1
    18    28    36    1
    19    30    33    1
    20    30    38    1
    21    31    34    1
    22    31    39    1
    23    32    35    1
    24    32    40    1
    25    41    43   ar
    26    15    19    2
    27    42    43   ar
    28    16    22    2
    29    17    12    1
    30    17    19   ar
    31    17    20   ar
    32    18    19   ar
    33    18    22   ar
    34    18    23    1
    35     9    10    1
    36     9    11    1
    37    10    12    1
    38    11     5    1
    39    33    34    1
    40    33    35    1
    41    34    36    1
    42    35    37    1
    43    37    43    1
    44    20    21   ar
    45    21    22   ar
@<TRIPOS>MOLECULE
UDP-glaA
 43 45 0 0 0
SMALL
GASTEIGER

@<TRIPOS>ATOM
      1 P          22.7603   71.9795   -2.4615 P.3     1  UNL1        0.2189
      2 O          23.5619   70.7169   -3.0786 O.3     1  UNL1       -0.4371
      3 O          23.3144   72.5123   -1.1726 O.2     1  UNL1       -0.5170
      4 O          21.2233   71.4789   -2.4122 O.3     1  UNL1       -0.3112
      5 C          20.5695   71.1778   -3.6333 C.3     1  UNL1        0.1811
      6 O          18.6872   72.0831   -4.8216 O.3     1  UNL1       -0.3308
      7 O          16.9951   70.9780   -2.6065 O.3     1  UNL1       -0.3794
      8 O          16.6653   69.1315   -4.5858 O.3     1  UNL1       -0.3779
      9 C          18.1760   70.4358   -3.1975 C.3     1  UNL1        0.1713
     10 C          17.8666   69.8746   -4.5693 C.3     1  UNL1        0.1895
     11 C          19.1088   71.5931   -3.5296 C.3     1  UNL1        0.1764
     12 C          17.7858   71.1342   -5.4149 C.3     1  UNL1        0.2383
     13 H          17.2491   71.3596   -1.7489 H       1  UNL1        0.2105
     14 H          16.7588   68.4097   -3.9404 H       1  UNL1        0.2106
     15 O          15.9798   70.7194   -7.5460 O.2     1  UNL1       -0.2464
     16 O          19.4019   70.2675  -10.5994 O.2     1  UNL1       -0.2670
     17 N          18.1771   70.9063   -6.7766 N.ar    1  UNL1       -0.2551
     18 N          17.6851   70.4941   -9.0650 N.ar    1  UNL1       -0.2743
     19 C          17.1913   70.7083   -7.7714 C.ar    1  UNL1        0.3323
     20 C          19.5255   70.8805   -7.1152 C.ar    1  UNL1        0.0869
     21 C          19.9803   70.6755   -8.3533 C.ar    1  UNL1        0.0795
     22 C          19.0163   70.4593   -9.4503 C.ar    1  UNL1        0.2626
     23 H          16.9943   70.3487   -9.7963 H       1  UNL1        0.1734
     24 O          22.7581   73.0393   -3.6829 O.3     1  UNL1       -0.2703
     25 P          23.4942   74.4689   -3.8475 P.3     1  UNL1        0.2208
     26 O          25.0625   74.0962   -3.7150 O.3     1  UNL1       -0.4371
     27 O          23.0228   75.5191   -2.8828 O.2     1  UNL1       -0.5170
     28 O          23.2959   74.8544   -5.4019 O.3     1  UNL1       -0.2858
     29 O          21.4484   76.0245   -6.3058 O.3     1  UNL1       -0.3226
     30 O          22.7844   73.8420   -9.5816 O.3     1  UNL1       -0.3794
     31 O          22.7021   72.6323   -6.9291 O.3     1  UNL1       -0.3775
     32 O          20.9390   75.8459   -9.1248 O.3     1  UNL1       -0.3792
     33 C          22.8552   74.5850   -8.3678 C.3     1  UNL1        0.1718
     34 C          22.0788   73.8695   -7.2571 C.3     1  UNL1        0.1968
     35 C          22.2660   75.9782   -8.6050 C.3     1  UNL1        0.1723
     36 C          22.0043   74.7419   -5.9979 C.3     1  UNL1        0.2706
     37 C          22.2022   76.7403   -7.2831 C.3     1  UNL1        0.1830
     38 H          23.2861   74.3321  -10.2552 H       1  UNL1        0.2105
     39 H          22.1825   72.2216   -6.2176 H       1  UNL1        0.2106
     40 H          20.3514   75.5637   -8.4035 H       1  UNL1        0.2106
     41 O          21.0512   78.2052   -8.7088 O.co2   1  UNL1       -0.5466
     42 O          21.3801   78.8923   -6.5602 O.co2   1  UNL1       -0.5466
     43 C          21.5139   78.0583   -7.4439 C.2     1  UNL1        0.0799
@<TRIPOS>UNITY_ATOM_ATTR
41 1
charge -1
@<TRIPOS>BOND
     1     1     4    1
     2     1    24    1
     3     1     2    1
     4     1     3    2
     5    25    28    1
     6    25    24    1
     7    25    26    1
     8    25    27    2
     9     6    11    1
    10     6    12    1
    11    29    36    1
    12    29    37    1
    13     7     9    1
    14     7    13    1
    15     8    10    1
    16     8    14    1
    17     4     5    1
    18    28    36    1
    19    30    33    1
    20    30    38    1
    21    31    34    1
    22    31    39    1
    23    32    35    1
    24    32    40    1
    25    41    43   ar
    26    15    19    2
    27    42    43   ar
    28    16    22    2
    29    17    12    1
    30    17    19   ar
    31    17    20   ar
    32    18    19   ar
    33    18    22   ar
    34    18    23    1
    35     9    10    1
    36     9    11    1
    37    10    12    1
    38    11     5    1
    39    33    34    1
    40    33    35    1
    41    34    36    1
    42    35    37    1
    43    37    43    1
    44    20    21   ar
    45    21    22   ar
@<TRIPOS>MOLECULE
UDP-glaA
 43 45 0 0 0
SMALL
GASTEIGER

@<TRIPOS>ATOM
      1 P          22.8342   72.5338   -3.8241 P.3     1  UNL1        0.2189
      2 O          22.9067   72.7936   -5.4193 O.3     1  UNL1       -0.4371
      3 O          23.5513   71.3037   -3.3500 O.2     1  UNL1       -0.5170
      4 O          21.2532   72.5985   -3.4901 O.3     1  UNL1       -0.3112
      5 C          20.5138   71.3893   -3.4759 C.3     1  UNL1        0.1811
      6 O          18.5803   72.2106   -4.6427 O.3     1  UNL1       -0.3308
      7 O          16.9585   70.9554   -2.4551 O.3     1  UNL1       -0.3794
      8 O          16.7355   69.1405   -4.4781 O.3     1  UNL1       -0.3779
      9 C          18.1685   70.4978   -3.0586 C.3     1  UNL1        0.1713
     10 C          17.8911   69.9523   -4.4436 C.3     1  UNL1        0.1895
     11 C          19.0314   71.7154   -3.3626 C.3     1  UNL1        0.1764
     12 C          17.7354   71.2248   -5.2588 C.3     1  UNL1        0.2383
     13 H          17.1906   71.3306   -1.5886 H       1  UNL1        0.2105
     14 H          16.8719   68.4103   -3.8502 H       1  UNL1        0.2106
     15 O          16.0272   70.3393   -7.3260 O.2     1  UNL1       -0.2464
     16 O          19.3904   70.6004  -10.4659 O.2     1  UNL1       -0.2670
     17 N          18.1380   71.0530   -6.6254 N.ar    1  UNL1       -0.2551
     18 N          17.7032   70.4694   -8.8880 N.ar    1  UNL1       -0.2743
     19 C          17.2027   70.6023   -7.5861 C.ar    1  UNL1        0.3323
     20 C          19.4474   71.3299   -7.0024 C.ar    1  UNL1        0.0869
     21 C          19.9092   71.1986   -8.2479 C.ar    1  UNL1        0.0795
     22 C          18.9970   70.7322   -9.3110 C.ar    1  UNL1        0.2626
     23 H          17.0487   70.1462   -9.5953 H       1  UNL1        0.1734
     24 O          23.3930   73.9196   -3.2056 O.3     1  UNL1       -0.2703
     25 P          23.7128   75.3407   -3.9062 P.3     1  UNL1        0.2208
     26 O          23.7230   76.3739   -2.6619 O.3     1  UNL1       -0.4371
     27 O          22.7647   75.7099   -5.0110 O.2     1  UNL1       -0.5170
     28 O          25.2573   75.2340   -4.3611 O.3     1  UNL1       -0.2858
     29 O          27.4668   75.6748   -3.6378 O.3     1  UNL1       -0.3226
     30 O          27.2778   77.8003   -7.2051 O.3     1  UNL1       -0.3794
     31 O          25.0180   77.7962   -5.3614 O.3     1  UNL1       -0.3775
     32 O          29.2358   77.1123   -5.3822 O.3     1  UNL1       -0.3792
     33 C          27.0179   76.7566   -6.2706 C.3     1  UNL1        0.1718
     34 C          26.3156   77.3145   -5.0280 C.3     1  UNL1        0.1968
     35 C          28.3455   76.1051   -5.8738 C.3     1  UNL1        0.1723
     36 C          26.1861   76.2347   -3.9465 C.3     1  UNL1        0.2706
     37 C          28.1039   75.0804   -4.7676 C.3     1  UNL1        0.1830
     38 H          27.7240   77.4028   -7.9723 H       1  UNL1        0.2105
     39 H          24.6100   78.1295   -4.5446 H       1  UNL1        0.2106
     40 H          28.9389   77.3814   -4.4964 H       1  UNL1        0.2106
     41 O          30.2817   74.3657   -5.2675 O.co2   1  UNL1       -0.5466
     42 O          29.6147   74.2193   -3.0925 O.co2   1  UNL1       -0.5466
     43 C          29.3899   74.5117   -4.2581 C.2     1  UNL1        0.0799
@<TRIPOS>UNITY_ATOM_ATTR
41 1
charge -1
@<TRIPOS>BOND
     1     1     4    1
     2     1    24    1
     3     1     2    1
     4     1     3    2
     5    25    28    1
     6    25    24    1
     7    25    26    1
     8    25    27    2
     9     6    11    1
    10     6    12    1
    11    29    36    1
    12    29    37    1
    13     7     9    1
    14     7    13    1
    15     8    10    1
    16     8    14    1
    17     4     5    1
    18    28    36    1
    19    30    33    1
    20    30    38    1
    21    31    34    1
    22    31    39    1
    23    32    35    1
    24    32    40    1
    25    41    43   ar
    26    15    19    2
    27    42    43   ar
    28    16    22    2
    29    17    12    1
    30    17    19   ar
    31    17    20   ar
    32    18    19   ar
    33    18    22   ar
    34    18    23    1
    35     9    10    1
    36     9    11    1
    37    10    12    1
    38    11     5    1
    39    33    34    1
    40    33    35    1
    41    34    36    1
    42    35    37    1
    43    37    43    1
    44    20    21   ar
    45    21    22   ar
@<TRIPOS>MOLECULE
UDP-glaA
 43 45 0 0 0
SMALL
GASTEIGER

@<TRIPOS>ATOM
      1 P          22.7655   71.9252   -2.5268 P.3     1  UNL1        0.2189
      2 O          23.6257   70.6645   -3.0636 O.3     1  UNL1       -0.4371
      3 O          23.3208   72.5960   -1.3046 O.2     1  UNL1       -0.5170
      4 O          21.2638   71.3413   -2.3871 O.3     1  UNL1       -0.3112
      5 C          20.5732   70.9593   -3.5646 C.3     1  UNL1        0.1811
      6 O          18.6812   71.9132   -4.6980 O.3     1  UNL1       -0.3308
      7 O          17.0043   70.6872   -2.5356 O.3     1  UNL1       -0.3794
      8 O          16.6765   68.9419   -4.6049 O.3     1  UNL1       -0.3779
      9 C          18.1857   70.1826   -3.1579 C.3     1  UNL1        0.1713
     10 C          17.8737   69.6900   -4.5553 C.3     1  UNL1        0.1895
     11 C          19.1108   71.3605   -3.4342 C.3     1  UNL1        0.1764
     12 C          17.7825   70.9905   -5.3354 C.3     1  UNL1        0.2383
     13 H          17.2597   71.0261   -1.6607 H       1  UNL1        0.2105
     14 H          16.7766   68.1888   -3.9975 H       1  UNL1        0.2106
     15 O          15.9733   70.6029   -7.4689 O.2     1  UNL1       -0.2464
     16 O          19.3819   70.4014  -10.5639 O.2     1  UNL1       -0.2670
     17 N          18.1695   70.8344   -6.7084 N.ar    1  UNL1       -0.2551
     18 N          17.6719   70.5023   -9.0086 N.ar    1  UNL1       -0.2743
     19 C          17.1824   70.6441   -7.7035 C.ar    1  UNL1        0.3323
     20 C          19.5149   70.8704   -7.0577 C.ar    1  UNL1        0.0869
     21 C          19.9656   70.7342   -8.3068 C.ar    1  UNL1        0.0795
     22 C          19.0000   70.5307   -9.4049 C.ar    1  UNL1        0.2626
     23 H          16.9801   70.3638   -9.7404 H       1  UNL1        0.1734
     24 O          22.6652   72.8768   -3.8305 O.3     1  UNL1       -0.2703
     25 P          23.2957   74.3347   -4.1301 P.3     1  UNL1        0.2208
     26 O          24.8887   74.0822   -4.0085 O.3     1  UNL1       -0.4371
     27 O          22.7715   75.4267   -3.2421 O.2     1  UNL1       -0.5170
     28 O          23.0393   74.5753   -5.7050 O.3     1  UNL1       -0.2858
     29 O          23.9294   76.0681   -7.3109 O.3     1  UNL1       -0.3226
     30 O          19.9128   75.9390   -8.3736 O.3     1  UNL1       -0.3794
     31 O          20.7004   76.0359   -5.5672 O.3     1  UNL1       -0.3775
     32 O          22.2365   76.9846   -9.4399 O.3     1  UNL1       -0.3792
     33 C          21.1685   75.4755   -7.8852 C.3     1  UNL1        0.1718
     34 C          21.5914   76.2789   -6.6507 C.3     1  UNL1        0.1968
     35 C          22.2161   75.6253   -8.9918 C.3     1  UNL1        0.1723
     36 C          23.0156   75.9054   -6.2212 C.3     1  UNL1        0.2706
     37 C          23.5960   75.2677   -8.4440 C.3     1  UNL1        0.1830
     38 H          19.6865   75.4052   -9.1543 H       1  UNL1        0.2105
     39 H          21.0127   76.5566   -4.8081 H       1  UNL1        0.2106
     40 H          22.6694   77.5276   -8.7596 H       1  UNL1        0.2106
     41 O          25.8123   74.8832   -9.1104 O.co2   1  UNL1       -0.5466
     42 O          24.5394   76.2125  -10.4557 O.co2   1  UNL1       -0.5466
     43 C          24.6690   75.5239   -9.4540 C.2     1  UNL1        0.0799
@<TRIPOS>UNITY_ATOM_ATTR
41 1
charge -1
@<TRIPOS>BOND
     1     1     4    1
     2     1    24    1
     3     1     2    1
     4     1     3    2
     5    25    28    1
     6    25    24    1
     7    25    26    1
     8    25    27    2
     9     6    11    1
    10     6    12    1
    11    29    36    1
    12    29    37    1
    13     7     9    1
    14     7    13    1
    15     8    10    1
    16     8    14    1
    17     4     5    1
    18    28    36    1
    19    30    33    1
    20    30    38    1
    21    31    34    1
    22    31    39    1
    23    32    35    1
    24    32    40    1
    25    41    43   ar
    26    15    19    2
    27    42    43   ar
    28    16    22    2
    29    17    12    1
    30    17    19   ar
    31    17    20   ar
    32    18    19   ar
    33    18    22   ar
    34    18    23    1
    35     9    10    1
    36     9    11    1
    37    10    12    1
    38    11     5    1
    39    33    34    1
    40    33    35    1
    41    34    36    1
    42    35    37    1
    43    37    43    1
    44    20    21   ar
    45    21    22   ar
@<TRIPOS>MOLECULE
UDP-glaA
 43 45 0 0 0
SMALL
GASTEIGER

@<TRIPOS>ATOM
      1 P          22.8726   72.0575   -2.9103 P.3     1  UNL1        0.2189
      2 O          23.8613   72.4694   -4.1229 O.3     1  UNL1       -0.4371
      3 O          23.1848   70.7426   -2.2579 O.2     1  UNL1       -0.5170
      4 O          21.3936   72.1907   -3.5510 O.3     1  UNL1       -0.3112
      5 C          20.5709   71.0375   -3.6016 C.3     1  UNL1        0.1811
      6 O          18.6900   72.0004   -4.7458 O.3     1  UNL1       -0.3308
      7 O          17.0008   70.8312   -2.5616 O.3     1  UNL1       -0.3794
      8 O          16.6441   69.0593   -4.6033 O.3     1  UNL1       -0.3779
      9 C          18.1736   70.3006   -3.1784 C.3     1  UNL1        0.1713
     10 C          17.8518   69.7912   -4.5675 C.3     1  UNL1        0.1895
     11 C          19.1145   71.4611   -3.4745 C.3     1  UNL1        0.1764
     12 C          17.7771   71.0807   -5.3672 C.3     1  UNL1        0.2383
     13 H          17.2628   71.1799   -1.6925 H       1  UNL1        0.2105
     14 H          16.7349   68.3143   -3.9846 H       1  UNL1        0.2106
     15 O          15.9827   70.4382   -7.4512 O.2     1  UNL1       -0.2464
     16 O          19.3558   70.4024  -10.5912 O.2     1  UNL1       -0.2670
     17 N          18.1589   70.8983   -6.7385 N.ar    1  UNL1       -0.2551
     18 N          17.6636   70.4203   -9.0133 N.ar    1  UNL1       -0.2743
     19 C          17.1802   70.5764   -7.7076 C.ar    1  UNL1        0.3323
     20 C          19.4911   71.0383   -7.1115 C.ar    1  UNL1        0.0869
     21 C          19.9362   70.8868   -8.3608 C.ar    1  UNL1        0.0795
     22 C          18.9787   70.5491   -9.4327 C.ar    1  UNL1        0.2626
     23 H          16.9778   70.1881   -9.7266 H       1  UNL1        0.1734
     24 O          22.9573   73.3359   -1.9236 O.3     1  UNL1       -0.2703
     25 P          22.1634   74.7437   -1.9418 P.3     1  UNL1        0.2208
     26 O          23.3434   75.8373   -1.7749 O.3     1  UNL1       -0.4371
     27 O          21.0715   74.8484   -0.9159 O.2     1  UNL1       -0.5170
     28 O          21.6636   74.9117   -3.4669 O.3     1  UNL1       -0.2858
     29 O          22.6886   74.9524   -5.5992 O.3     1  UNL1       -0.3226
     30 O          19.9284   78.0459   -5.9006 O.3     1  UNL1       -0.3794
     31 O          21.4661   77.6655   -3.4517 O.3     1  UNL1       -0.3775
     32 O          21.6324   76.7051   -7.6119 O.3     1  UNL1       -0.3792
     33 C          20.4757   76.7949   -5.4932 C.3     1  UNL1        0.1718
     34 C          21.7577   77.0111   -4.6820 C.3     1  UNL1        0.1968
     35 C          20.7789   75.9579   -6.7389 C.3     1  UNL1        0.1723
     36 C          22.4457   75.6726   -4.3863 C.3     1  UNL1        0.2706
     37 C          21.4965   74.6728   -6.3316 C.3     1  UNL1        0.1830
     38 H          19.1221   77.8609   -6.4116 H       1  UNL1        0.2105
     39 H          22.3038   77.7718   -2.9702 H       1  UNL1        0.2106
     40 H          22.5264   76.7215   -7.2303 H       1  UNL1        0.2106
     41 O          22.8027   72.9136   -7.1698 O.co2   1  UNL1       -0.5466
     42 O          21.5459   74.0804   -8.6717 O.co2   1  UNL1       -0.5466
     43 C          21.9278   73.8844   -7.5271 C.2     1  UNL1        0.0799
@<TRIPOS>UNITY_ATOM_ATTR
41 1
charge -1
@<TRIPOS>BOND
     1     1     4    1
     2     1    24    1
     3     1     2    1
     4     1     3    2
     5    25    28    1
     6    25    24    1
     7    25    26    1
     8    25    27    2
     9     6    11    1
    10     6    12    1
    11    29    36    1
    12    29    37    1
    13     7     9    1
    14     7    13    1
    15     8    10    1
    16     8    14    1
    17     4     5    1
    18    28    36    1
    19    30    33    1
    20    30    38    1
    21    31    34    1
    22    31    39    1
    23    32    35    1
    24    32    40    1
    25    41    43   ar
    26    15    19    2
    27    42    43   ar
    28    16    22    2
    29    17    12    1
    30    17    19   ar
    31    17    20   ar
    32    18    19   ar
    33    18    22   ar
    34    18    23    1
    35     9    10    1
    36     9    11    1
    37    10    12    1
    38    11     5    1
    39    33    34    1
    40    33    35    1
    41    34    36    1
    42    35    37    1
    43    37    43    1
    44    20    21   ar
    45    21    22   ar
@<TRIPOS>MOLECULE
UDP-glaA
 43 45 0 0 0
SMALL
GASTEIGER

@<TRIPOS>ATOM
      1 P          22.1233   70.5210   -0.1693 P.3     1  UNL1        0.2189
      2 O          20.8029   69.8467   -0.8168 O.3     1  UNL1       -0.4371
      3 O          23.2595   69.5733    0.0822 O.2     1  UNL1       -0.5170
      4 O          21.5631   71.3069    1.1284 O.3     1  UNL1       -0.3112
      5 C          22.4882   71.7310    2.1152 C.3     1  UNL1        0.1811
      6 O          22.6635   72.7798    4.2700 O.3     1  UNL1       -0.3308
      7 O          19.6999   73.2030    4.0974 O.3     1  UNL1       -0.3794
      8 O          20.6914   75.6534    3.4277 O.3     1  UNL1       -0.3779
      9 C          20.6809   73.2500    3.0614 C.3     1  UNL1        0.1713
     10 C          21.4957   74.5218    3.1670 C.3     1  UNL1        0.1895
     11 C          21.7233   72.1785    3.3526 C.3     1  UNL1        0.1764
     12 C          22.4383   74.1985    4.3137 C.3     1  UNL1        0.2383
     13 H          19.2302   72.3557    4.0135 H       1  UNL1        0.2105
     14 H          20.0459   75.7267    2.7038 H       1  UNL1        0.2106
     15 O          23.8053   75.4140    6.4653 O.2     1  UNL1       -0.2464
     16 O          27.2659   76.7692    3.7402 O.2     1  UNL1       -0.2670
     17 N          23.6982   74.8753    4.1951 N.ar    1  UNL1       -0.2551
     18 N          25.5274   76.0885    5.1068 N.ar    1  UNL1       -0.2743
     19 C          24.3003   75.4528    5.3374 C.ar    1  UNL1        0.3323
     20 C          24.3246   74.9621    2.9568 C.ar    1  UNL1        0.0869
     21 C          25.4947   75.5713    2.7533 C.ar    1  UNL1        0.0795
     22 C          26.1891   76.2009    3.8939 C.ar    1  UNL1        0.2626
     23 H          25.9783   76.5114    5.9136 H       1  UNL1        0.1734
     24 O          22.4616   71.7192   -1.2014 O.3     1  UNL1       -0.2703
     25 P          22.6610   71.7122   -2.8054 P.3     1  UNL1        0.2208
     26 O          23.6288   70.4403   -3.0535 O.3     1  UNL1       -0.4371
     27 O          23.1798   73.0049   -3.3672 O.2     1  UNL1       -0.5170
     28 O          21.2290   71.2567   -3.3935 O.3     1  UNL1       -0.2858
     29 O          20.0466   72.0889   -5.2667 O.3     1  UNL1       -0.3226
     30 O          16.9612   70.9310   -2.7332 O.3     1  UNL1       -0.3794
     31 O          19.3236   72.2734   -1.6736 O.3     1  UNL1       -0.3775
     32 O          17.1924   71.7965   -5.3462 O.3     1  UNL1       -0.3792
     33 C          18.2396   70.9018   -3.3618 C.3     1  UNL1        0.1718
     34 C          19.0129   72.1900   -3.0604 C.3     1  UNL1        0.1968
     35 C          18.0451   70.7488   -4.8728 C.3     1  UNL1        0.1723
     36 C          20.3149   72.2438   -3.8692 C.3     1  UNL1        0.2706
     37 C          19.3954   70.8581   -5.5777 C.3     1  UNL1        0.1830
     38 H          16.5073   70.0995   -2.9526 H       1  UNL1        0.2105
     39 H          19.8195   73.0975   -1.5331 H       1  UNL1        0.2106
     40 H          17.6973   72.6273   -5.3510 H       1  UNL1        0.2106
     41 O          18.0530   71.3901   -7.4266 O.co2   1  UNL1       -0.5466
     42 O          20.0642   70.4051   -7.8531 O.co2   1  UNL1       -0.5466
     43 C          19.2390   70.8440   -7.0651 C.2     1  UNL1        0.0799
@<TRIPOS>UNITY_ATOM_ATTR
41 1
charge -1
@<TRIPOS>BOND
     1     1     4    1
     2     1    24    1
     3     1     2    1
     4     1     3    2
     5    25    28    1
     6    25    24    1
     7    25    26    1
     8    25    27    2
     9     6    11    1
    10     6    12    1
    11    29    36    1
    12    29    37    1
    13     7     9    1
    14     7    13    1
    15     8    10    1
    16     8    14    1
    17     4     5    1
    18    28    36    1
    19    30    33    1
    20    30    38    1
    21    31    34    1
    22    31    39    1
    23    32    35    1
    24    32    40    1
    25    41    43   ar
    26    15    19    2
    27    42    43   ar
    28    16    22    2
    29    17    12    1
    30    17    19   ar
    31    17    20   ar
    32    18    19   ar
    33    18    22   ar
    34    18    23    1
    35     9    10    1
    36     9    11    1
    37    10    12    1
    38    11     5    1
    39    33    34    1
    40    33    35    1
    41    34    36    1
    42    35    37    1
    43    37    43    1
    44    20    21   ar
    45    21    22   ar
@<TRIPOS>MOLECULE
UDP-glaA
 43 45 0 0 0
SMALL
GASTEIGER

@<TRIPOS>ATOM
      1 P          19.1155   75.4678   -2.8879 P.3     1  UNL1        0.2189
      2 O          17.8670   76.1184   -2.0908 O.3     1  UNL1       -0.4371
      3 O          19.7501   76.3643   -3.9105 O.2     1  UNL1       -0.5170
      4 O          18.5334   74.0661   -3.4464 O.3     1  UNL1       -0.3112
      5 C          19.3058   72.8914   -3.2649 C.3     1  UNL1        0.1811
      6 O          17.6363   71.4968   -4.2858 O.3     1  UNL1       -0.3308
      7 O          18.2031   69.5332   -2.0917 O.3     1  UNL1       -0.3794
      8 O          19.5847   68.4881   -4.1976 O.3     1  UNL1       -0.3779
      9 C          19.1019   70.4031   -2.7796 C.3     1  UNL1        0.1713
     10 C          19.3689   69.8840   -4.1767 C.3     1  UNL1        0.1895
     11 C          18.3697   71.7090   -3.0593 C.3     1  UNL1        0.1764
     12 C          18.1030   70.2903   -4.9118 C.3     1  UNL1        0.2383
     13 H          18.0314   69.9254   -1.2186 H       1  UNL1        0.2105
     14 H          20.3433   68.3006   -3.6185 H       1  UNL1        0.2106
     15 O          16.1348   70.0730   -6.9254 O.2     1  UNL1       -0.2464
     16 O          19.1123   71.2963  -10.2233 O.2     1  UNL1       -0.2670
     17 N          18.3360   70.5466   -6.3044 N.ar    1  UNL1       -0.2551
     18 N          17.6189   70.6818   -8.5664 N.ar    1  UNL1       -0.2743
     19 C          17.2797   70.4078   -7.2348 C.ar    1  UNL1        0.3323
     20 C          19.6006   70.9309   -6.7364 C.ar    1  UNL1        0.0869
     21 C          19.9080   71.1891   -8.0094 C.ar    1  UNL1        0.0795
     22 C          18.8620   71.0667   -9.0441 C.ar    1  UNL1        0.2626
     23 H          16.8752   70.5879   -9.2528 H       1  UNL1        0.1734
     24 O          20.1032   75.0014   -1.6954 O.3     1  UNL1       -0.2703
     25 P          21.5706   75.5270   -1.2674 P.3     1  UNL1        0.2208
     26 O          21.2628   76.9437   -0.5504 O.3     1  UNL1       -0.4371
     27 O          22.5515   75.6065   -2.4021 O.2     1  UNL1       -0.5170
     28 O          22.0204   74.5496   -0.0647 O.3     1  UNL1       -0.2858
     29 O          21.0839   72.4799    0.5975 O.3     1  UNL1       -0.3226
     30 O          22.5117   73.9825    4.2007 O.3     1  UNL1       -0.3794
     31 O          21.1874   75.7374    2.2843 O.3     1  UNL1       -0.3775
     32 O          21.4480   71.5962    3.3040 O.3     1  UNL1       -0.3792
     33 C          22.4589   73.7312    2.7991 C.3     1  UNL1        0.1718
     34 C          21.1759   74.3163    2.1992 C.3     1  UNL1        0.1968
     35 C          22.5042   72.2187    2.5651 C.3     1  UNL1        0.1723
     36 C          21.0262   73.9040    0.7296 C.3     1  UNL1        0.2706
     37 C          22.3056   71.9230    1.0801 C.3     1  UNL1        0.1830
     38 H          23.3368   73.5935    4.5376 H       1  UNL1        0.2105
     39 H          20.3627   76.0619    1.8851 H       1  UNL1        0.2106
     40 H          20.6056   71.7843    2.8567 H       1  UNL1        0.2106
     41 O          23.2170   69.7930    1.4496 O.co2   1  UNL1       -0.5466
     42 O          21.3520   69.9120    0.1439 O.co2   1  UNL1       -0.5466
     43 C          22.2132   70.4525    0.8226 C.2     1  UNL1        0.0799
@<TRIPOS>UNITY_ATOM_ATTR
41 1
charge -1
@<TRIPOS>BOND
     1     1     4    1
     2     1    24    1
     3     1     2    1
     4     1     3    2
     5    25    28    1
     6    25    24    1
     7    25    26    1
     8    25    27    2
     9     6    11    1
    10     6    12    1
    11    29    36    1
    12    29    37    1
    13     7     9    1
    14     7    13    1
    15     8    10    1
    16     8    14    1
    17     4     5    1
    18    28    36    1
    19    30    33    1
    20    30    38    1
    21    31    34    1
    22    31    39    1
    23    32    35    1
    24    32    40    1
    25    41    43   ar
    26    15    19    2
    27    42    43   ar
    28    16    22    2
    29    17    12    1
    30    17    19   ar
    31    17    20   ar
    32    18    19   ar
    33    18    22   ar
    34    18    23    1
    35     9    10    1
    36     9    11    1
    37    10    12    1
    38    11     5    1
    39    33    34    1
    40    33    35    1
    41    34    36    1
    42    35    37    1
    43    37    43    1
    44    20    21   ar
    45    21    22   ar
@<TRIPOS>MOLECULE
UDP-glaA
 43 45 0 0 0
SMALL
GASTEIGER

@<TRIPOS>ATOM
      1 P          22.5892   72.9734   -4.3987 P.3     1  UNL1        0.2189
      2 O          22.7251   72.8205   -6.0036 O.3     1  UNL1       -0.4371
      3 O          23.4006   71.9966   -3.5989 O.2     1  UNL1       -0.5170
      4 O          20.9934   72.9413   -4.1379 O.3     1  UNL1       -0.3112
      5 C          20.4351   71.8094   -3.4927 C.3     1  UNL1        0.1811
      6 O          18.4247   72.4133   -4.6621 O.3     1  UNL1       -0.3308
      7 O          16.9437   71.0737   -2.4253 O.3     1  UNL1       -0.3794
      8 O          16.8771   69.1900   -4.3958 O.3     1  UNL1       -0.3779
      9 C          18.1869   70.7145   -3.0280 C.3     1  UNL1        0.1713
     10 C          17.9517   70.1069   -4.3948 C.3     1  UNL1        0.1895
     11 C          18.9296   71.9985   -3.3736 C.3     1  UNL1        0.1764
     12 C          17.6715   71.3359   -5.2428 C.3     1  UNL1        0.2383
     13 H          17.1460   71.4931   -1.5716 H       1  UNL1        0.2105
     14 H          17.0859   68.4936   -3.7496 H       1  UNL1        0.2106
     15 O          16.0322   70.2544   -7.2722 O.2     1  UNL1       -0.2464
     16 O          19.3399   70.7225  -10.4469 O.2     1  UNL1       -0.2670
     17 N          18.0783   71.1643   -6.6082 N.ar    1  UNL1       -0.2551
     18 N          17.6806   70.4878   -8.8516 N.ar    1  UNL1       -0.2743
     19 C          17.1790   70.6106   -7.5491 C.ar    1  UNL1        0.3323
     20 C          19.3566   71.5427   -7.0033 C.ar    1  UNL1        0.0869
     21 C          19.8198   71.4197   -8.2492 C.ar    1  UNL1        0.0795
     22 C          18.9442   70.8496   -9.2922 C.ar    1  UNL1        0.2626
     23 H          17.0516   70.0916   -9.5448 H       1  UNL1        0.1734
     24 O          22.9667   74.5260   -4.1494 O.3     1  UNL1       -0.2703
     25 P          24.3404   75.2161   -3.6501 P.3     1  UNL1        0.2208
     26 O          24.3359   76.6439   -4.4101 O.3     1  UNL1       -0.4371
     27 O          25.5696   74.3881   -3.8934 O.2     1  UNL1       -0.5170
     28 O          24.0764   75.5778   -2.0998 O.3     1  UNL1       -0.2858
     29 O          25.4639   75.2197   -0.2167 O.3     1  UNL1       -0.3226
     30 O          21.6608   74.8871    1.4279 O.3     1  UNL1       -0.3794
     31 O          22.2559   73.7185   -1.1771 O.3     1  UNL1       -0.3775
     32 O          24.2526   75.0007    2.3762 O.3     1  UNL1       -0.3792
     33 C          22.6938   75.3551    0.5653 C.3     1  UNL1        0.1718
     34 C          23.2485   74.2026   -0.2787 C.3     1  UNL1        0.1968
     35 C          23.8106   75.9661    1.4162 C.3     1  UNL1        0.1723
     36 C          24.4723   74.6583   -1.0830 C.3     1  UNL1        0.2706
     37 C          24.9889   76.3445    0.5215 C.3     1  UNL1        0.1830
     38 H          21.3419   75.6475    1.9432 H       1  UNL1        0.2105
     39 H          22.6547   72.9988   -1.6948 H       1  UNL1        0.2106
     40 H          24.7782   74.3251    1.9154 H       1  UNL1        0.2106
     41 O          26.9769   75.7962    1.6400 O.co2   1  UNL1       -0.5466
     42 O          26.3471   77.9871    1.6558 O.co2   1  UNL1       -0.5466
     43 C          26.1543   76.8259    1.3259 C.2     1  UNL1        0.0799
@<TRIPOS>UNITY_ATOM_ATTR
41 1
charge -1
@<TRIPOS>BOND
     1     1     4    1
     2     1    24    1
     3     1     2    1
     4     1     3    2
     5    25    28    1
     6    25    24    1
     7    25    26    1
     8    25    27    2
     9     6    11    1
    10     6    12    1
    11    29    36    1
    12    29    37    1
    13     7     9    1
    14     7    13    1
    15     8    10    1
    16     8    14    1
    17     4     5    1
    18    28    36    1
    19    30    33    1
    20    30    38    1
    21    31    34    1
    22    31    39    1
    23    32    35    1
    24    32    40    1
    25    41    43   ar
    26    15    19    2
    27    42    43   ar
    28    16    22    2
    29    17    12    1
    30    17    19   ar
    31    17    20   ar
    32    18    19   ar
    33    18    22   ar
    34    18    23    1
    35     9    10    1
    36     9    11    1
    37    10    12    1
    38    11     5    1
    39    33    34    1
    40    33    35    1
    41    34    36    1
    42    35    37    1
    43    37    43    1
    44    20    21   ar
    45    21    22   ar
@<TRIPOS>MOLECULE
UDP-glaA
 43 45 0 0 0
SMALL
GASTEIGER

@<TRIPOS>ATOM
      1 P          20.0039   74.1847   -3.2954 P.3     1  UNL1        0.2189
      2 O          19.5724   75.5651   -4.0203 O.3     1  UNL1       -0.4371
      3 O          18.9169   73.1547   -3.1971 O.2     1  UNL1       -0.5170
      4 O          20.6451   74.6660   -1.8909 O.3     1  UNL1       -0.3112
      5 C          20.6925   73.7430   -0.8161 C.3     1  UNL1        0.1811
      6 O          22.8185   73.3191    0.2205 O.3     1  UNL1       -0.3308
      7 O          22.8950   70.7969   -1.3993 O.3     1  UNL1       -0.3794
      8 O          22.1292   69.9021    1.0601 O.3     1  UNL1       -0.3779
      9 C          21.7793   71.4436   -0.7871 C.3     1  UNL1        0.1713
     10 C          21.8080   71.2330    0.7121 C.3     1  UNL1        0.1895
     11 C          21.9876   72.9480   -0.9016 C.3     1  UNL1        0.1764
     12 C          22.8727   72.2243    1.1499 C.3     1  UNL1        0.2383
     13 H          22.8562   70.9916   -2.3512 H       1  UNL1        0.2105
     14 H          21.4621   69.3237    0.6519 H       1  UNL1        0.2106
     15 O          20.4604   71.9023    2.5827 O.2     1  UNL1       -0.2464
     16 O          22.1074   74.1897    6.2287 O.2     1  UNL1       -0.2670
     17 N          22.6438   72.7249    2.4752 N.ar    1  UNL1       -0.2551
     18 N          21.2820   73.0420    4.3971 N.ar    1  UNL1       -0.2743
     19 C          21.3961   72.5101    3.1059 C.ar    1  UNL1        0.3323
     20 C          23.6497   73.4205    3.1367 C.ar    1  UNL1        0.0869
     21 C          23.5256   73.9211    4.3679 C.ar    1  UNL1        0.0795
     22 C          22.2539   73.7412    5.0959 C.ar    1  UNL1        0.2626
     23 H          20.3933   72.9002    4.8696 H       1  UNL1        0.1734
     24 O          21.2986   73.7186   -4.1449 O.3     1  UNL1       -0.2703
     25 P          21.6656   73.9077   -5.7076 P.3     1  UNL1        0.2208
     26 O          22.7560   72.7436   -5.9762 O.3     1  UNL1       -0.4371
     27 O          22.1320   75.2891   -6.0680 O.2     1  UNL1       -0.5170
     28 O          20.3461   73.4218   -6.4993 O.3     1  UNL1       -0.2858
     29 O          19.0223   71.4742   -6.2669 O.3     1  UNL1       -0.3226
     30 O          18.8065   72.1913  -10.3557 O.3     1  UNL1       -0.3794
     31 O          21.3239   72.5311   -8.9227 O.3     1  UNL1       -0.3775
     32 O          17.5868   70.4932   -8.5506 O.3     1  UNL1       -0.3792
     33 C          18.8944   72.4818   -8.9635 C.3     1  UNL1        0.1718
     34 C          20.1782   71.8884   -8.3737 C.3     1  UNL1        0.1968
     35 C          17.6714   71.8914   -8.2563 C.3     1  UNL1        0.1723
     36 C          20.1987   72.0461   -6.8483 C.3     1  UNL1        0.2706
     37 C          17.8168   72.0679   -6.7464 C.3     1  UNL1        0.1830
     38 H          17.9797   72.5828  -10.6855 H       1  UNL1        0.2105
     39 H          22.1093   72.1301   -8.5140 H       1  UNL1        0.2106
     40 H          18.2787   70.0296   -8.0492 H       1  UNL1        0.2106
     41 O          16.2533   70.3194   -6.7009 O.co2   1  UNL1       -0.5466
     42 O          16.2659   71.7473   -4.9238 O.co2   1  UNL1       -0.5466
     43 C          16.7068   71.3911   -6.0070 C.2     1  UNL1        0.0799
@<TRIPOS>UNITY_ATOM_ATTR
41 1
charge -1
@<TRIPOS>BOND
     1     1     4    1
     2     1    24    1
     3     1     2    1
     4     1     3    2
     5    25    28    1
     6    25    24    1
     7    25    26    1
     8    25    27    2
     9     6    11    1
    10     6    12    1
    11    29    36    1
    12    29    37    1
    13     7     9    1
    14     7    13    1
    15     8    10    1
    16     8    14    1
    17     4     5    1
    18    28    36    1
    19    30    33    1
    20    30    38    1
    21    31    34    1
    22    31    39    1
    23    32    35    1
    24    32    40    1
    25    41    43   ar
    26    15    19    2
    27    42    43   ar
    28    16    22    2
    29    17    12    1
    30    17    19   ar
    31    17    20   ar
    32    18    19   ar
    33    18    22   ar
    34    18    23    1
    35     9    10    1
    36     9    11    1
    37    10    12    1
    38    11     5    1
    39    33    34    1
    40    33    35    1
    41    34    36    1
    42    35    37    1
    43    37    43    1
    44    20    21   ar
    45    21    22   ar
@<TRIPOS>MOLECULE
UDP-glaA
 43 45 0 0 0
SMALL
GASTEIGER

@<TRIPOS>ATOM
      1 P          21.4571   72.8561   -6.1861 P.3     1  UNL1        0.2189
      2 O          20.4001   74.0652   -6.3818 O.3     1  UNL1       -0.4371
      3 O          22.8186   73.1055   -6.7660 O.2     1  UNL1       -0.5170
      4 O          20.6765   71.5599   -6.7571 O.3     1  UNL1       -0.3112
      5 C          19.3147   71.3805   -6.4071 C.3     1  UNL1        0.1811
      6 O          17.1329   71.1412   -7.3851 O.3     1  UNL1       -0.3308
      7 O          18.5414   70.9650  -10.0264 O.3     1  UNL1       -0.3794
      8 O          17.6498   73.5418   -9.9978 O.3     1  UNL1       -0.3779
      9 C          18.8636   71.7550   -8.8820 C.3     1  UNL1        0.1713
     10 C          17.8989   72.9153   -8.7564 C.3     1  UNL1        0.1895
     11 C          18.5401   70.9358   -7.6395 C.3     1  UNL1        0.1764
     12 C          16.6642   72.2391   -8.1854 C.3     1  UNL1        0.2383
     13 H          19.1592   70.2143  -10.0436 H       1  UNL1        0.2105
     14 H          18.5038   73.8506  -10.3464 H       1  UNL1        0.2106
     15 O          14.7302   74.0496   -9.1635 O.2     1  UNL1       -0.2464
     16 O          13.7492   75.5748   -4.9268 O.2     1  UNL1       -0.2670
     17 N          15.8884   73.1206   -7.3605 N.ar    1  UNL1       -0.2551
     18 N          14.2433   74.8083   -7.0532 N.ar    1  UNL1       -0.2743
     19 C          14.9436   73.9920   -7.9512 C.ar    1  UNL1        0.3323
     20 C          16.0674   73.1163   -5.9816 C.ar    1  UNL1        0.0869
     21 C          15.3916   73.9004   -5.1388 C.ar    1  UNL1        0.0795
     22 C          14.3869   74.8400   -5.6747 C.ar    1  UNL1        0.2626
     23 H          13.5593   75.4433   -7.4556 H       1  UNL1        0.1734
     24 O          21.4399   72.6151   -4.5871 O.3     1  UNL1       -0.2703
     25 P          22.6114   72.1597   -3.5709 P.3     1  UNL1        0.2208
     26 O          23.9142   72.9346   -4.1352 O.3     1  UNL1       -0.4371
     27 O          22.7787   70.6719   -3.4507 O.2     1  UNL1       -0.5170
     28 O          22.2618   72.9054   -2.1833 O.3     1  UNL1       -0.2858
     29 O          21.4767   71.2146   -0.7258 O.3     1  UNL1       -0.3226
     30 O          21.4018   74.5756    1.7190 O.3     1  UNL1       -0.3794
     31 O          20.5370   74.7461   -1.0611 O.3     1  UNL1       -0.3775
     32 O          21.0574   71.8539    2.0408 O.3     1  UNL1       -0.3792
     33 C          21.8504   73.6948    0.6928 C.3     1  UNL1        0.1718
     34 C          20.7644   73.5201   -0.3741 C.3     1  UNL1        0.1968
     35 C          22.1933   72.3398    1.3180 C.3     1  UNL1        0.1723
     36 C          21.1689   72.4446   -1.3900 C.3     1  UNL1        0.2706
     37 C          22.5400   71.3397    0.2173 C.3     1  UNL1        0.1830
     38 H          22.1182   74.6545    2.3718 H       1  UNL1        0.2105
     39 H          19.8510   74.5845   -1.7305 H       1  UNL1        0.2106
     40 H          20.3908   71.5509    1.4012 H       1  UNL1        0.2106
     41 O          23.3832   70.0304    1.9719 O.co2   1  UNL1       -0.5466
     42 O          22.4138   68.9285    0.2274 O.co2   1  UNL1       -0.5466
     43 C          22.7560   69.9678    0.7726 C.2     1  UNL1        0.0799
@<TRIPOS>UNITY_ATOM_ATTR
41 1
charge -1
@<TRIPOS>BOND
     1     1     4    1
     2     1    24    1
     3     1     2    1
     4     1     3    2
     5    25    28    1
     6    25    24    1
     7    25    26    1
     8    25    27    2
     9     6    11    1
    10     6    12    1
    11    29    36    1
    12    29    37    1
    13     7     9    1
    14     7    13    1
    15     8    10    1
    16     8    14    1
    17     4     5    1
    18    28    36    1
    19    30    33    1
    20    30    38    1
    21    31    34    1
    22    31    39    1
    23    32    35    1
    24    32    40    1
    25    41    43   ar
    26    15    19    2
    27    42    43   ar
    28    16    22    2
    29    17    12    1
    30    17    19   ar
    31    17    20   ar
    32    18    19   ar
    33    18    22   ar
    34    18    23    1
    35     9    10    1
    36     9    11    1
    37    10    12    1
    38    11     5    1
    39    33    34    1
    40    33    35    1
    41    34    36    1
    42    35    37    1
    43    37    43    1
    44    20    21   ar
    45    21    22   ar
@<TRIPOS>MOLECULE
UDP-glaA
 43 45 0 0 0
SMALL
GASTEIGER

@<TRIPOS>ATOM
      1 P          22.1390   75.1494   -5.9431 P.3     1  UNL1        0.2189
      2 O          21.4144   76.5361   -5.5316 O.3     1  UNL1       -0.4371
      3 O          23.4981   75.3043   -6.5604 O.2     1  UNL1       -0.5170
      4 O          21.0375   74.3883   -6.8503 O.3     1  UNL1       -0.3112
      5 C          21.3692   73.1248   -7.4007 C.3     1  UNL1        0.1811
      6 O          19.8013   71.3906   -7.9564 O.3     1  UNL1       -0.3308
      7 O          18.3547   73.4705   -9.5603 O.3     1  UNL1       -0.3794
      8 O          16.8661   73.3354   -7.2796 O.3     1  UNL1       -0.3779
      9 C          19.0469   73.6069   -8.3193 C.3     1  UNL1        0.1713
     10 C          18.2352   72.9979   -7.1956 C.3     1  UNL1        0.1895
     11 C          20.2677   72.6971   -8.3601 C.3     1  UNL1        0.1764
     12 C          18.4838   71.5125   -7.3955 C.3     1  UNL1        0.2383
     13 H          18.9283   73.8384  -10.2540 H       1  UNL1        0.2105
     14 H          16.8017   74.3056   -7.2534 H       1  UNL1        0.2106
     15 O          16.2595   69.9993   -6.5363 O.2     1  UNL1       -0.2464
     16 O          18.3906   68.7330   -2.6513 O.2     1  UNL1       -0.2670
     17 N          18.4303   70.7771   -6.1644 N.ar    1  UNL1       -0.2551
     18 N          17.3220   69.3702   -4.6020 N.ar    1  UNL1       -0.2743
     19 C          17.2652   70.0500   -5.8259 C.ar    1  UNL1        0.3323
     20 C          19.5245   70.7812   -5.3065 C.ar    1  UNL1        0.0869
     21 C          19.5633   70.1275   -4.1433 C.ar    1  UNL1        0.0795
     22 C          18.3871   69.3447   -3.7151 C.ar    1  UNL1        0.2626
     23 H          16.4953   68.8412   -4.3378 H       1  UNL1        0.1734
     24 O          22.1182   74.3063   -4.5633 O.3     1  UNL1       -0.2703
     25 P          23.2009   74.2028   -3.3676 P.3     1  UNL1        0.2208
     26 O          23.2812   75.7180   -2.8074 O.3     1  UNL1       -0.4371
     27 O          24.5234   73.6243   -3.7825 O.2     1  UNL1       -0.5170
     28 O          22.4475   73.3766   -2.2041 O.3     1  UNL1       -0.2858
     29 O          22.8837   72.7206    0.0273 O.3     1  UNL1       -0.3226
     30 O          21.3568   69.2254   -1.6254 O.3     1  UNL1       -0.3794
     31 O          23.2105   70.8931   -3.1383 O.3     1  UNL1       -0.3775
     32 O          22.0398   70.1189    0.8975 O.3     1  UNL1       -0.3792
     33 C          21.5252   70.6235   -1.4080 C.3     1  UNL1        0.1718
     34 C          22.9584   71.0480   -1.7457 C.3     1  UNL1        0.1968
     35 C          21.2177   70.9372    0.0588 C.3     1  UNL1        0.1723
     36 C          23.1982   72.5112   -1.3533 C.3     1  UNL1        0.2706
     37 C          21.5294   72.4043    0.3461 C.3     1  UNL1        0.1830
     38 H          20.4384   69.0016   -1.3972 H       1  UNL1        0.2105
     39 H          24.1234   71.1821   -3.3051 H       1  UNL1        0.2106
     40 H          22.9494   70.4606    0.8665 H       1  UNL1        0.2106
     41 O          21.6873   74.0178    2.0419 O.co2   1  UNL1       -0.5466
     42 O          20.9940   71.9338    2.6530 O.co2   1  UNL1       -0.5466
     43 C          21.3670   72.7241    1.7981 C.2     1  UNL1        0.0799
@<TRIPOS>UNITY_ATOM_ATTR
41 1
charge -1
@<TRIPOS>BOND
     1     1     4    1
     2     1    24    1
     3     1     2    1
     4     1     3    2
     5    25    28    1
     6    25    24    1
     7    25    26    1
     8    25    27    2
     9     6    11    1
    10     6    12    1
    11    29    36    1
    12    29    37    1
    13     7     9    1
    14     7    13    1
    15     8    10    1
    16     8    14    1
    17     4     5    1
    18    28    36    1
    19    30    33    1
    20    30    38    1
    21    31    34    1
    22    31    39    1
    23    32    35    1
    24    32    40    1
    25    41    43   ar
    26    15    19    2
    27    42    43   ar
    28    16    22    2
    29    17    12    1
    30    17    19   ar
    31    17    20   ar
    32    18    19   ar
    33    18    22   ar
    34    18    23    1
    35     9    10    1
    36     9    11    1
    37    10    12    1
    38    11     5    1
    39    33    34    1
    40    33    35    1
    41    34    36    1
    42    35    37    1
    43    37    43    1
    44    20    21   ar
    45    21    22   ar
@<TRIPOS>MOLECULE
UDP-glaA
 43 45 0 0 0
SMALL
GASTEIGER

@<TRIPOS>ATOM
      1 P          21.9998   70.7033   -2.8005 P.3     1  UNL1        0.2189
      2 O          23.5114   70.7531   -3.3747 O.3     1  UNL1       -0.4371
      3 O          21.3416   69.3562   -2.8666 O.2     1  UNL1       -0.5170
      4 O          21.2433   71.8946   -3.5906 O.3     1  UNL1       -0.3112
      5 C          20.3269   71.5522   -4.6163 C.3     1  UNL1        0.1811
      6 O          18.1066   72.4681   -4.6895 O.3     1  UNL1       -0.3308
      7 O          17.2340   69.9779   -3.2651 O.3     1  UNL1       -0.3794
      8 O          16.5225   69.4671   -5.8474 O.3     1  UNL1       -0.3779
      9 C          18.2401   70.1413   -4.2644 C.3     1  UNL1        0.1713
     10 C          17.6030   70.3489   -5.6222 C.3     1  UNL1        0.1895
     11 C          18.9258   71.4802   -4.0261 C.3     1  UNL1        0.1764
     12 C          17.1651   71.8017   -5.5467 C.3     1  UNL1        0.2383
     13 H          17.6872   69.8876   -2.4095 H       1  UNL1        0.2105
     14 H          16.8646   68.5597   -5.7717 H       1  UNL1        0.2106
     15 O          18.9474   71.1665   -7.6432 O.2     1  UNL1       -0.2464
     16 O          17.0838   74.3281  -10.4307 O.2     1  UNL1       -0.2670
     17 N          17.1677   72.4424   -6.8308 N.ar    1  UNL1       -0.2551
     18 N          18.0186   72.7417   -9.0297 N.ar    1  UNL1       -0.2743
     19 C          18.1053   72.0498   -7.8144 C.ar    1  UNL1        0.3323
     20 C          16.2480   73.4485   -7.1052 C.ar    1  UNL1        0.0869
     21 C          16.1777   74.0982   -8.2691 C.ar    1  UNL1        0.0795
     22 C          17.1217   73.7493   -9.3492 C.ar    1  UNL1        0.2626
     23 H          18.6833   72.4765   -9.7515 H       1  UNL1        0.1734
     24 O          22.1596   71.3023   -1.3069 O.3     1  UNL1       -0.2703
     25 P          22.4207   70.5664    0.1082 P.3     1  UNL1        0.2208
     26 O          23.9044   69.9460   -0.0643 O.3     1  UNL1       -0.4371
     27 O          21.3687   69.5624    0.4838 O.2     1  UNL1       -0.5170
     28 O          22.6020   71.7700    1.1677 O.3     1  UNL1       -0.2858
     29 O          21.8693   72.3989    3.3281 O.3     1  UNL1       -0.3226
     30 O          21.1427   75.8474    1.1237 O.3     1  UNL1       -0.3794
     31 O          20.5644   73.2199   -0.0021 O.3     1  UNL1       -0.3775
     32 O          21.0864   75.1217    3.7883 O.3     1  UNL1       -0.3792
     33 C          21.7977   74.6486    1.5289 C.3     1  UNL1        0.1718
     34 C          20.8591   73.4475    1.3720 C.3     1  UNL1        0.1968
     35 C          22.2282   74.7895    2.9915 C.3     1  UNL1        0.1723
     36 C          21.4922   72.1823    1.9644 C.3     1  UNL1        0.2706
     37 C          22.8044   73.4648    3.4868 C.3     1  UNL1        0.1830
     38 H          21.7715   76.5796    1.2421 H       1  UNL1        0.2105
     39 H          19.9770   72.4470   -0.0521 H       1  UNL1        0.2106
     40 H          20.5316   74.3285    3.8790 H       1  UNL1        0.2106
     41 O          24.3569   74.0278    5.1531 O.co2   1  UNL1       -0.5466
     42 O          22.3668   73.1542    5.8409 O.co2   1  UNL1       -0.5466
     43 C          23.1189   73.5171    4.9481 C.2     1  UNL1        0.0799
@<TRIPOS>UNITY_ATOM_ATTR
41 1
charge -1
@<TRIPOS>BOND
     1     1     4    1
     2     1    24    1
     3     1     2    1
     4     1     3    2
     5    25    28    1
     6    25    24    1
     7    25    26    1
     8    25    27    2
     9     6    11    1
    10     6    12    1
    11    29    36    1
    12    29    37    1
    13     7     9    1
    14     7    13    1
    15     8    10    1
    16     8    14    1
    17     4     5    1
    18    28    36    1
    19    30    33    1
    20    30    38    1
    21    31    34    1
    22    31    39    1
    23    32    35    1
    24    32    40    1
    25    41    43   ar
    26    15    19    2
    27    42    43   ar
    28    16    22    2
    29    17    12    1
    30    17    19   ar
    31    17    20   ar
    32    18    19   ar
    33    18    22   ar
    34    18    23    1
    35     9    10    1
    36     9    11    1
    37    10    12    1
    38    11     5    1
    39    33    34    1
    40    33    35    1
    41    34    36    1
    42    35    37    1
    43    37    43    1
    44    20    21   ar
    45    21    22   ar
@<TRIPOS>MOLECULE
UDP-glaA
 43 45 0 0 0
SMALL
GASTEIGER

@<TRIPOS>ATOM
      1 P          21.5989   73.2692   -6.0339 P.3     1  UNL1        0.2189
      2 O          21.0892   74.6876   -6.6219 O.3     1  UNL1       -0.4371
      3 O          22.6648   72.5937   -6.8461 O.2     1  UNL1       -0.5170
      4 O          20.2368   72.4240   -5.8197 O.3     1  UNL1       -0.3112
      5 C          19.3122   72.8660   -4.8405 C.3     1  UNL1        0.1811
      6 O          17.0161   73.0856   -5.5144 O.3     1  UNL1       -0.3308
      7 O          17.0193   70.1039   -5.8326 O.3     1  UNL1       -0.3794
      8 O          17.2903   70.9772   -8.4016 O.3     1  UNL1       -0.3779
      9 C          18.0626   71.0416   -6.0972 C.3     1  UNL1        0.1713
     10 C          17.7666   71.8123   -7.3665 C.3     1  UNL1        0.1895
     11 C          17.9926   72.1335   -5.0377 C.3     1  UNL1        0.1764
     12 C          16.7228   72.8099   -6.8940 C.3     1  UNL1        0.2383
     13 H          17.2321   69.6630   -4.9924 H       1  UNL1        0.2105
     14 H          17.9700   70.3019   -8.5690 H       1  UNL1        0.2106
     15 O          14.7984   73.5816   -8.8115 O.2     1  UNL1       -0.2464
     16 O          16.9831   77.5460   -9.6768 O.2     1  UNL1       -0.2670
     17 N          16.7637   74.0383   -7.6348 N.ar    1  UNL1       -0.2551
     18 N          15.8878   75.5550   -9.2415 N.ar    1  UNL1       -0.2743
     19 C          15.7484   74.3302   -8.5754 C.ar    1  UNL1        0.3323
     20 C          17.8020   74.9392   -7.4263 C.ar    1  UNL1        0.0869
     21 C          17.9206   76.1031   -8.0690 C.ar    1  UNL1        0.0795
     22 C          16.9026   76.4834   -9.0683 C.ar    1  UNL1        0.2626
     23 H          15.1697   75.7855   -9.9228 H       1  UNL1        0.1734
     24 O          22.0375   73.6402   -4.5222 O.3     1  UNL1       -0.2703
     25 P          23.2374   73.0761   -3.5977 P.3     1  UNL1        0.2208
     26 O          24.5195   73.9290   -4.0924 O.3     1  UNL1       -0.4371
     27 O          23.4196   71.5868   -3.6661 O.2     1  UNL1       -0.5170
     28 O          22.9160   73.6413   -2.1208 O.3     1  UNL1       -0.2858
     29 O          21.5910   71.9500   -1.1292 O.3     1  UNL1       -0.3226
     30 O          22.1137   74.6078    2.0239 O.3     1  UNL1       -0.3794
     31 O          21.6024   75.5914   -0.6737 O.3     1  UNL1       -0.3775
     32 O          21.0693   72.0724    1.6906 O.3     1  UNL1       -0.3792
     33 C          22.4285   73.8793    0.8405 C.3     1  UNL1        0.1718
     34 C          21.4460   74.2318   -0.2814 C.3     1  UNL1        0.1968
     35 C          22.3573   72.3810    1.1477 C.3     1  UNL1        0.1723
     36 C          21.6686   73.3299   -1.5018 C.3     1  UNL1        0.2706
     37 C          22.5516   71.5833   -0.1400 C.3     1  UNL1        0.1830
     38 H          22.7578   74.3520    2.7060 H       1  UNL1        0.2105
     39 H          20.9685   75.7649   -1.3899 H       1  UNL1        0.2106
     40 H          20.4158   72.1015    0.9714 H       1  UNL1        0.2106
     41 O          21.0732   69.7618   -0.1348 O.co2   1  UNL1       -0.5466
     42 O          23.2411   69.3409    0.4309 O.co2   1  UNL1       -0.5466
     43 C          22.3609   70.1178    0.0900 C.2     1  UNL1        0.0799
@<TRIPOS>UNITY_ATOM_ATTR
41 1
charge -1
@<TRIPOS>BOND
     1     1     4    1
     2     1    24    1
     3     1     2    1
     4     1     3    2
     5    25    28    1
     6    25    24    1
     7    25    26    1
     8    25    27    2
     9     6    11    1
    10     6    12    1
    11    29    36    1
    12    29    37    1
    13     7     9    1
    14     7    13    1
    15     8    10    1
    16     8    14    1
    17     4     5    1
    18    28    36    1
    19    30    33    1
    20    30    38    1
    21    31    34    1
    22    31    39    1
    23    32    35    1
    24    32    40    1
    25    41    43   ar
    26    15    19    2
    27    42    43   ar
    28    16    22    2
    29    17    12    1
    30    17    19   ar
    31    17    20   ar
    32    18    19   ar
    33    18    22   ar
    34    18    23    1
    35     9    10    1
    36     9    11    1
    37    10    12    1
    38    11     5    1
    39    33    34    1
    40    33    35    1
    41    34    36    1
    42    35    37    1
    43    37    43    1
    44    20    21   ar
    45    21    22   ar
@<TRIPOS>MOLECULE
UDP-glaA
 43 45 0 0 0
SMALL
GASTEIGER

@<TRIPOS>ATOM
      1 P          22.6475   73.1216   -4.4518 P.3     1  UNL1        0.2189
      2 O          22.7991   73.0242   -6.0596 O.3     1  UNL1       -0.4371
      3 O          23.5567   72.2156   -3.6743 O.2     1  UNL1       -0.5170
      4 O          21.0638   72.9156   -4.1966 O.3     1  UNL1       -0.3112
      5 C          20.6323   71.7422   -3.5286 C.3     1  UNL1        0.1811
      6 O          18.5338   72.1817   -4.6138 O.3     1  UNL1       -0.3308
      7 O          17.2607   70.6982   -2.3401 O.3     1  UNL1       -0.3794
      8 O          17.2798   68.8346   -4.3306 O.3     1  UNL1       -0.3779
      9 C          18.5058   70.4534   -2.9938 C.3     1  UNL1        0.1713
     10 C          18.2710   69.8407   -4.3583 C.3     1  UNL1        0.1895
     11 C          19.1217   71.7998   -3.3506 C.3     1  UNL1        0.1764
     12 C          17.8539   71.0490   -5.1794 C.3     1  UNL1        0.2383
     13 H          17.4590   71.1254   -1.4894 H       1  UNL1        0.2105
     14 H          17.5724   68.1527   -3.7017 H       1  UNL1        0.2106
     15 O          16.0556   70.3926   -7.2557 O.2     1  UNL1       -0.2464
     16 O          19.3755   70.6026  -10.4451 O.2     1  UNL1       -0.2670
     17 N          18.2210   70.9260   -6.5612 N.ar    1  UNL1       -0.2551
     18 N          17.7101   70.4971   -8.8424 N.ar    1  UNL1       -0.2743
     19 C          17.2416   70.5913   -7.5254 C.ar    1  UNL1        0.3323
     20 C          19.5395   71.1360   -6.9495 C.ar    1  UNL1        0.0869
     21 C          19.9704   71.0429   -8.2094 C.ar    1  UNL1        0.0795
     22 C          19.0113   70.6966   -9.2770 C.ar    1  UNL1        0.2626
     23 H          17.0235   70.2570   -9.5524 H       1  UNL1        0.1734
     24 O          22.8598   74.6985   -4.1627 O.3     1  UNL1       -0.2703
     25 P          23.9073   75.7593   -4.7873 P.3     1  UNL1        0.2208
     26 O          23.5557   77.1315   -4.0065 O.3     1  UNL1       -0.4371
     27 O          23.8558   75.8671   -6.2844 O.2     1  UNL1       -0.5170
     28 O          25.3421   75.3114   -4.2001 O.3     1  UNL1       -0.2858
     29 O          26.5045   76.7523   -2.7264 O.3     1  UNL1       -0.3226
     30 O          29.5104   74.1605   -3.9619 O.3     1  UNL1       -0.3794
     31 O          27.5387   75.1574   -5.8656 O.3     1  UNL1       -0.3775
     32 O          29.2359   76.1582   -2.0741 O.3     1  UNL1       -0.3792
     33 C          28.2029   74.5932   -3.5969 C.3     1  UNL1        0.1718
     34 C          27.7143   75.6849   -4.5550 C.3     1  UNL1        0.1968
     35 C          28.2416   75.1324   -2.1643 C.3     1  UNL1        0.1723
     36 C          26.3847   76.2770   -4.0713 C.3     1  UNL1        0.2706
     37 C          26.8837   75.7314   -1.8046 C.3     1  UNL1        0.1830
     38 H          29.7794   73.4732   -3.3287 H       1  UNL1        0.2105
     39 H          27.2207   75.8802   -6.4325 H       1  UNL1        0.2106
     40 H          28.8986   76.9551   -2.5171 H       1  UNL1        0.2106
     41 O          26.5765   75.5029    0.5100 O.co2   1  UNL1       -0.5466
     42 O          27.2036   77.5563   -0.2563 O.co2   1  UNL1       -0.5466
     43 C          26.9133   76.3864   -0.4603 C.2     1  UNL1        0.0799
@<TRIPOS>UNITY_ATOM_ATTR
41 1
charge -1
@<TRIPOS>BOND
     1     1     4    1
     2     1    24    1
     3     1     2    1
     4     1     3    2
     5    25    28    1
     6    25    24    1
     7    25    26    1
     8    25    27    2
     9     6    11    1
    10     6    12    1
    11    29    36    1
    12    29    37    1
    13     7     9    1
    14     7    13    1
    15     8    10    1
    16     8    14    1
    17     4     5    1
    18    28    36    1
    19    30    33    1
    20    30    38    1
    21    31    34    1
    22    31    39    1
    23    32    35    1
    24    32    40    1
    25    41    43   ar
    26    15    19    2
    27    42    43   ar
    28    16    22    2
    29    17    12    1
    30    17    19   ar
    31    17    20   ar
    32    18    19   ar
    33    18    22   ar
    34    18    23    1
    35     9    10    1
    36     9    11    1
    37    10    12    1
    38    11     5    1
    39    33    34    1
    40    33    35    1
    41    34    36    1
    42    35    37    1
    43    37    43    1
    44    20    21   ar
    45    21    22   ar
