@<TRIPOS>MOLECULE
*****
 43 45 0 0 0
SMALL
GASTEIGER

@<TRIPOS>ATOM
      1 P          22.6804   71.4727   -2.7621 P.3     1  UNL1        0.2189
      2 O          23.0257   72.9319   -3.3709 O.co2   1  UNL1       -0.4371
      3 O          23.5551   70.3575   -3.2548 O.2     1  UNL1       -0.5170
      4 O          21.0963   71.2996   -3.0427 O.3     1  UNL1       -0.3112
      5 C          20.4132   72.3359   -3.7238 C.3     1  UNL1        0.1811
      6 O          18.2618   72.3277   -4.7958 O.3     1  UNL1       -0.3308
      7 O          17.2682   70.8634   -2.3750 O.3     1  UNL1       -0.3794
      8 O          17.5786   68.8593   -4.1979 O.3     1  UNL1       -0.3779
      9 C          18.5318   70.7688   -3.0329 C.3     1  UNL1        0.1713
     10 C          18.3897   70.0074   -4.3338 C.3     1  UNL1        0.1895
     11 C          18.9140   72.1604   -3.5183 C.3     1  UNL1        0.1764
     12 C          17.7733   71.0542   -5.2462 C.3     1  UNL1        0.2383
     13 H          17.0029   69.9862   -2.0560 H       1  UNL1        0.2105
     14 H          18.0145   68.2235   -3.6083 H       1  UNL1        0.2106
     15 O          15.9555   70.4649   -7.3258 O.2     1  UNL1       -0.2464
     16 O          19.3135   70.3716  -10.4816 O.2     1  UNL1       -0.2670
     17 N          18.1455   70.8708   -6.6205 N.ar    1  UNL1       -0.2551
     18 N          17.6298   70.4180   -8.8954 N.ar    1  UNL1       -0.2743
     19 C          17.1546   70.5776   -7.5870 C.ar    1  UNL1        0.3323
     20 C          19.4778   70.9832   -6.9991 C.ar    1  UNL1        0.0869
     21 C          19.9155   70.8285   -8.2502 C.ar    1  UNL1        0.0795
     22 C          18.9446   70.5195   -9.3204 C.ar    1  UNL1        0.2626
     23 H          16.9588   70.2113   -9.5855 H       1  UNL1        0.1734
     24 O          22.7416   71.7216   -1.1661 O.3     1  UNL1       -0.2703
     25 P          22.4597   70.7250    0.0752 P.3     1  UNL1        0.2208
     26 O          23.7381   69.7323    0.0502 O.co2   1  UNL1       -0.4371
     27 O          21.1326   70.0257    0.0143 O.2     1  UNL1       -0.5170
     28 O          22.6769   71.6357    1.3889 O.3     1  UNL1       -0.2858
     29 O          21.8757   72.4366    3.4687 O.3     1  UNL1       -0.3226
     30 O          21.2101   75.6848    1.0041 O.3     1  UNL1       -0.3794
     31 O          20.6243   72.9773    0.0763 O.3     1  UNL1       -0.3775
     32 O          23.4326   75.7061    2.8779 O.3     1  UNL1       -0.3792
     33 C          21.8870   74.5152    1.4643 C.3     1  UNL1        0.1718
     34 C          20.9326   73.3216    1.4221 C.3     1  UNL1        0.1968
     35 C          22.3542   74.7727    2.8987 C.3     1  UNL1        0.1723
     36 C          21.5455   72.1061    2.1192 C.3     1  UNL1        0.2706
     37 C          22.8340   73.4878    3.5674 C.3     1  UNL1        0.1830
     38 H          20.9040   75.5445    0.0942 H       1  UNL1        0.2105
     39 H          20.2353   73.7441   -0.3721 H       1  UNL1        0.2106
     40 H          23.1404   76.5284    2.4546 H       1  UNL1        0.2106
     41 O          22.0266   72.9696    5.7078 O.co2   1  UNL1       -0.5466
     42 O          23.8207   74.3713    5.5842 O.co2   1  UNL1       -0.5466
     43 C          22.9729   73.6777    5.0429 C.2     1  UNL1        0.0799
@<TRIPOS>UNITY_ATOM_ATTR
2 1
charge -1
26 1
charge -1
41 1
charge -1
@<TRIPOS>BOND
     1     1     4    1
     2     1    24    1
     3     1     2    1
     4     1     3    2
     5    25    28    1
     6    25    24    1
     7    25    26    1
     8    25    27    2
     9     6    11    1
    10     6    12    1
    11    29    36    1
    12    29    37    1
    13     7     9    1
    14     7    13    1
    15     8    10    1
    16     8    14    1
    17     4     5    1
    18    28    36    1
    19    30    33    1
    20    30    38    1
    21    31    34    1
    22    31    39    1
    23    32    35    1
    24    32    40    1
    25    41    43   ar
    26    15    19    2
    27    42    43   ar
    28    16    22    2
    29    17    12    1
    30    17    19   ar
    31    17    20   ar
    32    18    19   ar
    33    18    22   ar
    34    18    23    1
    35     9    10    1
    36     9    11    1
    37    10    12    1
    38    11     5    1
    39    33    34    1
    40    33    35    1
    41    34    36    1
    42    35    37    1
    43    37    43    1
    44    20    21   ar
    45    21    22   ar
@<TRIPOS>MOLECULE
*****
 43 45 0 0 0
SMALL
GASTEIGER

@<TRIPOS>ATOM
      1 P          22.6205   72.9105   -4.1231 P.3     1  UNL1        0.2189
      2 O          23.0869   73.4159   -5.5880 O.co2   1  UNL1       -0.4371
      3 O          23.4379   71.7905   -3.5493 O.2     1  UNL1       -0.5170
      4 O          21.0410   72.6080   -4.3012 O.3     1  UNL1       -0.3112
      5 C          20.4604   71.5708   -3.5320 C.3     1  UNL1        0.1811
      6 O          18.4786   72.2654   -4.7015 O.3     1  UNL1       -0.3308
      7 O          16.9378   70.9647   -2.4822 O.3     1  UNL1       -0.3794
      8 O          16.8024   69.1045   -4.4715 O.3     1  UNL1       -0.3779
      9 C          18.1679   70.5622   -3.0849 C.3     1  UNL1        0.1713
     10 C          17.9122   69.9778   -4.4580 C.3     1  UNL1        0.1895
     11 C          18.9618   71.8185   -3.4162 C.3     1  UNL1        0.1764
     12 C          17.6849   71.2253   -5.2945 C.3     1  UNL1        0.2383
     13 H          16.4131   70.1788   -2.2616 H       1  UNL1        0.2105
     14 H          16.9967   68.3262   -3.9251 H       1  UNL1        0.2106
     15 O          15.9899   70.2959   -7.3535 O.2     1  UNL1       -0.2464
     16 O          19.3455   70.5929  -10.4993 O.2     1  UNL1       -0.2670
     17 N          18.0897   71.0504   -6.6606 N.ar    1  UNL1       -0.2551
     18 N          17.6631   70.4437   -8.9181 N.ar    1  UNL1       -0.2743
     19 C          17.1605   70.5774   -7.6171 C.ar    1  UNL1        0.3323
     20 C          19.3927   71.3474   -7.0414 C.ar    1  UNL1        0.0869
     21 C          19.8571   71.2149   -8.2854 C.ar    1  UNL1        0.0795
     22 C          18.9507   70.7257   -9.3448 C.ar    1  UNL1        0.2626
     23 H          17.0352   70.1141   -9.6011 H       1  UNL1        0.1734
     24 O          22.6337   74.2701   -3.2489 O.3     1  UNL1       -0.2703
     25 P          23.6547   74.7882   -2.1074 P.3     1  UNL1        0.2208
     26 O          23.1294   76.2869   -1.7940 O.co2   1  UNL1       -0.4371
     27 O          25.1030   74.7089   -2.4947 O.2     1  UNL1       -0.5170
     28 O          23.2654   73.9372   -0.7934 O.3     1  UNL1       -0.2858
     29 O          21.7433   72.1310   -0.6204 O.3     1  UNL1       -0.3226
     30 O          21.5154   73.7871    3.1576 O.3     1  UNL1       -0.3794
     31 O          21.5983   75.4999    0.7924 O.3     1  UNL1       -0.3775
     32 O          22.9931   71.3200    2.7325 O.3     1  UNL1       -0.3792
     33 C          22.1458   73.4272    1.9283 C.3     1  UNL1        0.1718
     34 C          21.4106   74.0897    0.7630 C.3     1  UNL1        0.1968
     35 C          22.0892   71.9036    1.7962 C.3     1  UNL1        0.1723
     36 C          21.9100   73.5487   -0.5774 C.3     1  UNL1        0.2706
     37 C          22.4814   71.4513    0.3926 C.3     1  UNL1        0.1830
     38 H          21.5393   74.7513    3.2633 H       1  UNL1        0.2105
     39 H          21.2838   75.8499    1.6403 H       1  UNL1        0.2106
     40 H          22.7545   71.6002    3.6300 H       1  UNL1        0.2106
     41 O          20.8893   69.9247   -0.4051 O.co2   1  UNL1       -0.5466
     42 O          22.8099   69.0622    0.4704 O.co2   1  UNL1       -0.5466
     43 C          22.1118   70.0202    0.1738 C.2     1  UNL1        0.0799
@<TRIPOS>UNITY_ATOM_ATTR
2 1
charge -1
26 1
charge -1
41 1
charge -1
@<TRIPOS>BOND
     1     1     4    1
     2     1    24    1
     3     1     2    1
     4     1     3    2
     5    25    28    1
     6    25    24    1
     7    25    26    1
     8    25    27    2
     9     6    11    1
    10     6    12    1
    11    29    36    1
    12    29    37    1
    13     7     9    1
    14     7    13    1
    15     8    10    1
    16     8    14    1
    17     4     5    1
    18    28    36    1
    19    30    33    1
    20    30    38    1
    21    31    34    1
    22    31    39    1
    23    32    35    1
    24    32    40    1
    25    41    43   ar
    26    15    19    2
    27    42    43   ar
    28    16    22    2
    29    17    12    1
    30    17    19   ar
    31    17    20   ar
    32    18    19   ar
    33    18    22   ar
    34    18    23    1
    35     9    10    1
    36     9    11    1
    37    10    12    1
    38    11     5    1
    39    33    34    1
    40    33    35    1
    41    34    36    1
    42    35    37    1
    43    37    43    1
    44    20    21   ar
    45    21    22   ar
@<TRIPOS>MOLECULE
*****
 43 45 0 0 0
SMALL
GASTEIGER

@<TRIPOS>ATOM
      1 P          21.7873   70.2813   -1.0017 P.3     1  UNL1        0.2189
      2 O          23.3208   70.4327   -1.4960 O.co2   1  UNL1       -0.4371
      3 O          21.6054   69.5076    0.2711 O.2     1  UNL1       -0.5170
      4 O          21.0177   69.6930   -2.2976 O.3     1  UNL1       -0.3112
      5 C          20.7365   70.5701   -3.3729 C.3     1  UNL1        0.1811
      6 O          18.9614   71.8013   -4.4269 O.3     1  UNL1       -0.3308
      7 O          17.1621   70.6437   -2.3260 O.3     1  UNL1       -0.3794
      8 O          16.6301   69.0783   -4.4946 O.3     1  UNL1       -0.3779
      9 C          18.2763   70.0471   -2.9901 C.3     1  UNL1        0.1713
     10 C          17.9047   69.6807   -4.4113 C.3     1  UNL1        0.1895
     11 C          19.3286   71.1266   -3.2041 C.3     1  UNL1        0.1764
     12 C          17.9612   71.0288   -5.1096 C.3     1  UNL1        0.2383
     13 H          16.4763   69.9731   -2.1783 H       1  UNL1        0.2105
     14 H          16.6460   68.2233   -4.0356 H       1  UNL1        0.2106
     15 O          16.1507   70.4083   -7.1865 O.2     1  UNL1       -0.2464
     16 O          19.4642   70.6150  -10.3838 O.2     1  UNL1       -0.2670
     17 N          18.3239   70.9142   -6.4938 N.ar    1  UNL1       -0.2551
     18 N          17.8029   70.5109   -8.7768 N.ar    1  UNL1       -0.2743
     19 C          17.3378   70.5982   -7.4581 C.ar    1  UNL1        0.3323
     20 C          19.6422   71.1154   -6.8843 C.ar    1  UNL1        0.0869
     21 C          20.0705   71.0289   -8.1452 C.ar    1  UNL1        0.0795
     22 C          19.1037   70.7018   -9.2138 C.ar    1  UNL1        0.2626
     23 H          17.1351   70.2900   -9.4657 H       1  UNL1        0.1734
     24 O          21.2737   71.8126   -0.9381 O.3     1  UNL1       -0.2703
     25 P          21.3395   72.9057    0.2512 P.3     1  UNL1        0.2208
     26 O          20.9307   72.0500    1.5631 O.co2   1  UNL1       -0.4371
     27 O          20.4912   74.1221    0.0173 O.2     1  UNL1       -0.5170
     28 O          22.9122   73.2123    0.4388 O.3     1  UNL1       -0.2858
     29 O          24.0003   74.0243   -1.5017 O.3     1  UNL1       -0.3226
     30 O          20.5152   76.2428   -1.5017 O.3     1  UNL1       -0.3794
     31 O          21.9705   75.7713    0.9871 O.3     1  UNL1       -0.3775
     32 O          20.8320   74.0232   -3.3521 O.3     1  UNL1       -0.3792
     33 C          21.3311   75.0978   -1.2542 C.3     1  UNL1        0.1718
     34 C          22.4731   75.4773   -0.3112 C.3     1  UNL1        0.1968
     35 C          21.8869   74.6143   -2.5956 C.3     1  UNL1        0.1723
     36 C          23.4945   74.3441   -0.2051 C.3     1  UNL1        0.2706
     37 C          22.9882   73.5763   -2.4007 C.3     1  UNL1        0.1830
     38 H          20.1509   76.5678   -0.6632 H       1  UNL1        0.2105
     39 H          21.3216   76.4894    0.9272 H       1  UNL1        0.2106
     40 H          20.1243   74.6736   -3.4831 H       1  UNL1        0.2106
     41 O          24.8539   74.1325   -3.7089 O.co2   1  UNL1       -0.5466
     42 O          23.4103   72.5864   -4.5602 O.co2   1  UNL1       -0.5466
     43 C          23.7418   73.3573   -3.6721 C.2     1  UNL1        0.0799
@<TRIPOS>UNITY_ATOM_ATTR
2 1
charge -1
26 1
charge -1
41 1
charge -1
@<TRIPOS>BOND
     1     1     4    1
     2     1    24    1
     3     1     2    1
     4     1     3    2
     5    25    28    1
     6    25    24    1
     7    25    26    1
     8    25    27    2
     9     6    11    1
    10     6    12    1
    11    29    36    1
    12    29    37    1
    13     7     9    1
    14     7    13    1
    15     8    10    1
    16     8    14    1
    17     4     5    1
    18    28    36    1
    19    30    33    1
    20    30    38    1
    21    31    34    1
    22    31    39    1
    23    32    35    1
    24    32    40    1
    25    41    43   ar
    26    15    19    2
    27    42    43   ar
    28    16    22    2
    29    17    12    1
    30    17    19   ar
    31    17    20   ar
    32    18    19   ar
    33    18    22   ar
    34    18    23    1
    35     9    10    1
    36     9    11    1
    37    10    12    1
    38    11     5    1
    39    33    34    1
    40    33    35    1
    41    34    36    1
    42    35    37    1
    43    37    43    1
    44    20    21   ar
    45    21    22   ar
@<TRIPOS>MOLECULE
*****
 43 45 0 0 0
SMALL
GASTEIGER

@<TRIPOS>ATOM
      1 P          21.9557   73.7672   -6.1439 P.3     1  UNL1        0.2189
      2 O          22.3874   75.2767   -6.5363 O.co2   1  UNL1       -0.4371
      3 O          22.7696   72.6865   -6.7930 O.2     1  UNL1       -0.5170
      4 O          20.3665   73.7269   -6.4451 O.3     1  UNL1       -0.3112
      5 C          19.8685   74.4616   -7.5482 C.3     1  UNL1        0.1811
      6 O          19.5857   72.1472   -8.1323 O.3     1  UNL1       -0.3308
      7 O          17.8894   73.1207  -10.4053 O.3     1  UNL1       -0.3794
      8 O          16.0322   72.3230   -8.5750 O.3     1  UNL1       -0.3779
      9 C          18.0115   73.6412   -9.0814 C.3     1  UNL1        0.1713
     10 C          17.2928   72.7433   -8.0968 C.3     1  UNL1        0.1895
     11 C          19.4636   73.4901   -8.6493 C.3     1  UNL1        0.1764
     12 C          18.2737   71.5932   -7.9448 C.3     1  UNL1        0.2383
     13 H          16.9699   73.2064  -10.7033 H       1  UNL1        0.2105
     14 H          15.4440   73.0909   -8.6542 H       1  UNL1        0.2106
     15 O          16.1099   70.0245   -7.0317 O.2     1  UNL1       -0.2464
     16 O          18.1203   69.3012   -2.9477 O.2     1  UNL1       -0.2670
     17 N          18.2057   70.9828   -6.6472 N.ar    1  UNL1       -0.2551
     18 N          17.1128   69.6666   -4.9982 N.ar    1  UNL1       -0.2743
     19 C          17.0735   70.2143   -6.2872 C.ar    1  UNL1        0.3323
     20 C          19.2524   71.1465   -5.7480 C.ar    1  UNL1        0.0869
     21 C          19.2756   70.6182   -4.5228 C.ar    1  UNL1        0.0795
     22 C          18.1308   69.8021   -4.0681 C.ar    1  UNL1        0.2626
     23 H          16.3347   69.1292   -4.7241 H       1  UNL1        0.1734
     24 O          22.0191   73.7799   -4.5287 O.3     1  UNL1       -0.2703
     25 P          23.1339   73.2102   -3.5058 P.3     1  UNL1        0.2208
     26 O          24.3772   74.2265   -3.7102 O.co2   1  UNL1       -0.4371
     27 O          23.4774   71.7634   -3.7126 O.2     1  UNL1       -0.5170
     28 O          22.5598   73.5590   -2.0391 O.3     1  UNL1       -0.2858
     29 O          21.5779   71.6073   -1.1248 O.3     1  UNL1       -0.3226
     30 O          20.8858   74.3754    1.8630 O.3     1  UNL1       -0.3794
     31 O          20.5225   75.1030   -0.9429 O.3     1  UNL1       -0.3775
     32 O          22.9752   72.3791    2.1789 O.3     1  UNL1       -0.3792
     33 C          21.5987   73.7771    0.7805 C.3     1  UNL1        0.1718
     34 C          20.7210   73.7752   -0.4714 C.3     1  UNL1        0.1968
     35 C          21.9546   72.3442    1.1831 C.3     1  UNL1        0.1723
     36 C          21.3572   72.9413   -1.5843 C.3     1  UNL1        0.2706
     37 C          22.4642   71.5406   -0.0098 C.3     1  UNL1        0.1830
     38 H          20.6489   75.2869    1.6299 H       1  UNL1        0.2105
     39 H          20.1194   75.6378   -0.2417 H       1  UNL1        0.2106
     40 H          22.6636   72.8878    2.9437 H       1  UNL1        0.2106
     41 O          23.7572   69.5962    0.2115 O.co2   1  UNL1       -0.5466
     42 O          21.5208   69.4097    0.6154 O.co2   1  UNL1       -0.5466
     43 C          22.4944   70.0810    0.3079 C.2     1  UNL1        0.0799
@<TRIPOS>UNITY_ATOM_ATTR
2 1
charge -1
26 1
charge -1
41 1
charge -1
@<TRIPOS>BOND
     1     1     4    1
     2     1    24    1
     3     1     2    1
     4     1     3    2
     5    25    28    1
     6    25    24    1
     7    25    26    1
     8    25    27    2
     9     6    11    1
    10     6    12    1
    11    29    36    1
    12    29    37    1
    13     7     9    1
    14     7    13    1
    15     8    10    1
    16     8    14    1
    17     4     5    1
    18    28    36    1
    19    30    33    1
    20    30    38    1
    21    31    34    1
    22    31    39    1
    23    32    35    1
    24    32    40    1
    25    41    43   ar
    26    15    19    2
    27    42    43   ar
    28    16    22    2
    29    17    12    1
    30    17    19   ar
    31    17    20   ar
    32    18    19   ar
    33    18    22   ar
    34    18    23    1
    35     9    10    1
    36     9    11    1
    37    10    12    1
    38    11     5    1
    39    33    34    1
    40    33    35    1
    41    34    36    1
    42    35    37    1
    43    37    43    1
    44    20    21   ar
    45    21    22   ar
@<TRIPOS>MOLECULE
*****
 43 45 0 0 0
SMALL
GASTEIGER

@<TRIPOS>ATOM
      1 P          22.8080   71.6530   -2.2375 P.3     1  UNL1        0.2189
      2 O          23.3707   73.1639   -2.3767 O.co2   1  UNL1       -0.4371
      3 O          23.4125   70.6617   -3.1881 O.2     1  UNL1       -0.5170
      4 O          21.2020   71.8264   -2.3304 O.3     1  UNL1       -0.3112
      5 C          20.5460   71.4229   -3.5184 C.3     1  UNL1        0.1811
      6 O          18.6114   72.2299   -4.6946 O.3     1  UNL1       -0.3308
      7 O          16.9917   71.0342   -2.4723 O.3     1  UNL1       -0.3794
      8 O          16.7480   69.1764   -4.4536 O.3     1  UNL1       -0.3779
      9 C          18.1964   70.5558   -3.0710 C.3     1  UNL1        0.1713
     10 C          17.9083   69.9815   -4.4420 C.3     1  UNL1        0.1895
     11 C          19.0649   71.7606   -3.4064 C.3     1  UNL1        0.1764
     12 C          17.7575   71.2367   -5.2844 C.3     1  UNL1        0.2383
     13 H          16.4204   70.2822   -2.2492 H       1  UNL1        0.2105
     14 H          16.8944   68.3904   -3.9035 H       1  UNL1        0.2106
     15 O          16.0237   70.3560   -7.3325 O.2     1  UNL1       -0.2464
     16 O          19.3849   70.4845  -10.4838 O.2     1  UNL1       -0.2670
     17 N          18.1533   71.0316   -6.6490 N.ar    1  UNL1       -0.2551
     18 N          17.6997   70.4199   -8.8998 N.ar    1  UNL1       -0.2743
     19 C          17.2044   70.5871   -7.5999 C.ar    1  UNL1        0.3323
     20 C          19.4668   71.2715   -7.0338 C.ar    1  UNL1        0.0869
     21 C          19.9240   71.1077   -8.2767 C.ar    1  UNL1        0.0795
     22 C          18.9972   70.6449   -9.3304 C.ar    1  UNL1        0.2626
     23 H          17.0581   70.1091   -9.5789 H       1  UNL1        0.1734
     24 O          23.0476   71.3191   -0.6742 O.3     1  UNL1       -0.2703
     25 P          22.1168   70.5518    0.4021 P.3     1  UNL1        0.2208
     26 O          23.1891   69.9422    1.4504 O.co2   1  UNL1       -0.4371
     27 O          21.1919   69.5333   -0.1989 O.2     1  UNL1       -0.5170
     28 O          21.3760   71.7307    1.2168 O.3     1  UNL1       -0.2858
     29 O          21.9157   74.0359    1.2794 O.3     1  UNL1       -0.3226
     30 O          20.2352   73.4644    5.0099 O.3     1  UNL1       -0.3794
     31 O          22.0775   71.4890    3.8973 O.3     1  UNL1       -0.3775
     32 O          18.7230   74.8008    2.9175 O.3     1  UNL1       -0.3792
     33 C          20.4157   73.2336    3.6128 C.3     1  UNL1        0.1718
     34 C          21.8529   72.7831    3.3501 C.3     1  UNL1        0.1968
     35 C          20.1252   74.5428    2.8757 C.3     1  UNL1        0.1723
     36 C          22.1498   72.7479    1.8502 C.3     1  UNL1        0.2706
     37 C          20.5644   74.4698    1.4162 C.3     1  UNL1        0.1830
     38 H          20.4145   72.6458    5.4989 H       1  UNL1        0.2105
     39 H          21.8908   71.5039    4.8488 H       1  UNL1        0.2106
     40 H          18.4305   74.8495    3.8410 H       1  UNL1        0.2106
     41 O          20.8379   76.7771    1.7373 O.co2   1  UNL1       -0.5466
     42 O          20.4027   76.0667   -0.3852 O.co2   1  UNL1       -0.5466
     43 C          20.5850   75.8306    0.7997 C.2     1  UNL1        0.0799
@<TRIPOS>UNITY_ATOM_ATTR
2 1
charge -1
26 1
charge -1
41 1
charge -1
@<TRIPOS>BOND
     1     1     4    1
     2     1    24    1
     3     1     2    1
     4     1     3    2
     5    25    28    1
     6    25    24    1
     7    25    26    1
     8    25    27    2
     9     6    11    1
    10     6    12    1
    11    29    36    1
    12    29    37    1
    13     7     9    1
    14     7    13    1
    15     8    10    1
    16     8    14    1
    17     4     5    1
    18    28    36    1
    19    30    33    1
    20    30    38    1
    21    31    34    1
    22    31    39    1
    23    32    35    1
    24    32    40    1
    25    41    43   ar
    26    15    19    2
    27    42    43   ar
    28    16    22    2
    29    17    12    1
    30    17    19   ar
    31    17    20   ar
    32    18    19   ar
    33    18    22   ar
    34    18    23    1
    35     9    10    1
    36     9    11    1
    37    10    12    1
    38    11     5    1
    39    33    34    1
    40    33    35    1
    41    34    36    1
    42    35    37    1
    43    37    43    1
    44    20    21   ar
    45    21    22   ar
@<TRIPOS>MOLECULE
*****
 43 45 0 0 0
SMALL
GASTEIGER

@<TRIPOS>ATOM
      1 P          22.9679   71.9099   -3.4069 P.3     1  UNL1        0.2189
      2 O          23.7079   72.8938   -4.4572 O.co2   1  UNL1       -0.4371
      3 O          23.6884   70.6234   -3.1282 O.2     1  UNL1       -0.5170
      4 O          21.4705   71.7619   -4.0019 O.3     1  UNL1       -0.3112
      5 C          20.6478   70.7195   -3.5108 C.3     1  UNL1        0.1811
      6 O          18.8391   71.8654   -4.6031 O.3     1  UNL1       -0.3308
      7 O          17.0718   70.7234   -2.4668 O.3     1  UNL1       -0.3794
      8 O          16.5870   69.0759   -4.5849 O.3     1  UNL1       -0.3779
      9 C          18.2033   70.1385   -3.1117 C.3     1  UNL1        0.1713
     10 C          17.8437   69.7169   -4.5207 C.3     1  UNL1        0.1895
     11 C          19.2244   71.2404   -3.3596 C.3     1  UNL1        0.1764
     12 C          17.8621   71.0434   -5.2611 C.3     1  UNL1        0.2383
     13 H          16.4055   70.0384   -2.2980 H       1  UNL1        0.2105
     14 H          16.6270   68.2365   -4.0992 H       1  UNL1        0.2106
     15 O          16.0486   70.4276   -7.3368 O.2     1  UNL1       -0.2464
     16 O          19.3824   70.5006  -10.5186 O.2     1  UNL1       -0.2670
     17 N          18.2293   70.8956   -6.6410 N.ar    1  UNL1       -0.2551
     18 N          17.7109   70.4635   -8.9194 N.ar    1  UNL1       -0.2743
     19 C          17.2411   70.5852   -7.6050 C.ar    1  UNL1        0.3323
     20 C          19.5539   71.0594   -7.0276 C.ar    1  UNL1        0.0869
     21 C          19.9865   70.9404   -8.2844 C.ar    1  UNL1        0.0795
     22 C          19.0181   70.6166   -9.3524 C.ar    1  UNL1        0.2626
     23 H          17.0417   70.2458   -9.6079 H       1  UNL1        0.1734
     24 O          22.7531   72.8552   -2.1134 O.3     1  UNL1       -0.2703
     25 P          23.4452   74.2552   -1.6952 P.3     1  UNL1        0.2208
     26 O          22.2961   75.3477   -2.0210 O.co2   1  UNL1       -0.4371
     27 O          24.7590   74.5190   -2.3721 O.2     1  UNL1       -0.5170
     28 O          23.5192   74.2101   -0.0843 O.3     1  UNL1       -0.2858
     29 O          21.9536   74.5192    1.6657 O.3     1  UNL1       -0.3226
     30 O          25.2916   76.4276    3.1770 O.3     1  UNL1       -0.3794
     31 O          24.5402   76.7565    0.3731 O.3     1  UNL1       -0.3775
     32 O          24.5307   73.8066    4.1783 O.3     1  UNL1       -0.3792
     33 C          24.5821   75.4495    2.4167 C.3     1  UNL1        0.1718
     34 C          23.7205   76.1464    1.3634 C.3     1  UNL1        0.1968
     35 C          23.7021   74.6492    3.3795 C.3     1  UNL1        0.1723
     36 C          22.7757   75.1534    0.6851 C.3     1  UNL1        0.2706
     37 C          22.7021   73.7770    2.6260 C.3     1  UNL1        0.1830
     38 H          25.8577   76.9486    2.5859 H       1  UNL1        0.2105
     39 H          25.1424   77.3877    0.7965 H       1  UNL1        0.2106
     40 H          25.1720   74.3494    4.6631 H       1  UNL1        0.2106
     41 O          22.1350   72.2641    4.3263 O.co2   1  UNL1       -0.5466
     42 O          20.4988   73.6787    3.6045 O.co2   1  UNL1       -0.5466
     43 C          21.6462   73.2621    3.5491 C.2     1  UNL1        0.0799
@<TRIPOS>UNITY_ATOM_ATTR
2 1
charge -1
26 1
charge -1
41 1
charge -1
@<TRIPOS>BOND
     1     1     4    1
     2     1    24    1
     3     1     2    1
     4     1     3    2
     5    25    28    1
     6    25    24    1
     7    25    26    1
     8    25    27    2
     9     6    11    1
    10     6    12    1
    11    29    36    1
    12    29    37    1
    13     7     9    1
    14     7    13    1
    15     8    10    1
    16     8    14    1
    17     4     5    1
    18    28    36    1
    19    30    33    1
    20    30    38    1
    21    31    34    1
    22    31    39    1
    23    32    35    1
    24    32    40    1
    25    41    43   ar
    26    15    19    2
    27    42    43   ar
    28    16    22    2
    29    17    12    1
    30    17    19   ar
    31    17    20   ar
    32    18    19   ar
    33    18    22   ar
    34    18    23    1
    35     9    10    1
    36     9    11    1
    37    10    12    1
    38    11     5    1
    39    33    34    1
    40    33    35    1
    41    34    36    1
    42    35    37    1
    43    37    43    1
    44    20    21   ar
    45    21    22   ar
@<TRIPOS>MOLECULE
*****
 43 45 0 0 0
SMALL
GASTEIGER

@<TRIPOS>ATOM
      1 P          22.3765   71.2851   -2.3936 P.3     1  UNL1        0.2189
      2 O          23.5976   70.6271   -3.2272 O.co2   1  UNL1       -0.4371
      3 O          21.0744   70.5452   -2.4869 O.2     1  UNL1       -0.5170
      4 O          22.3481   72.8232   -2.8950 O.3     1  UNL1       -0.3112
      5 C          21.3936   73.1987   -3.8708 C.3     1  UNL1        0.1811
      6 O          21.5174   72.0675   -5.9881 O.3     1  UNL1       -0.3308
      7 O          22.7909   74.5701   -7.0402 O.3     1  UNL1       -0.3794
      8 O          20.2210   74.7922   -7.9245 O.3     1  UNL1       -0.3779
      9 C          21.7520   74.4231   -6.0719 C.3     1  UNL1        0.1713
     10 C          20.4532   74.0423   -6.7505 C.3     1  UNL1        0.1895
     11 C          22.0543   73.1821   -5.2432 C.3     1  UNL1        0.1764
     12 C          20.6662   72.5649   -7.0328 C.3     1  UNL1        0.2383
     13 H          22.6196   75.3568   -7.5819 H       1  UNL1        0.2105
     14 H          20.0913   75.7255   -7.6916 H       1  UNL1        0.2106
     15 O          18.9760   72.2604   -9.2749 O.2     1  UNL1       -0.2464
     16 O          15.9756   69.6969   -6.8938 O.2     1  UNL1       -0.2670
     17 N          19.4372   71.8230   -7.0267 N.ar    1  UNL1       -0.2551
     18 N          17.4827   70.9847   -8.0866 N.ar    1  UNL1       -0.2743
     19 C          18.6619   71.7318   -8.2068 C.ar    1  UNL1        0.3323
     20 C          19.0122   71.1947   -5.8625 C.ar    1  UNL1        0.0869
     21 C          17.8859   70.4859   -5.7633 C.ar    1  UNL1        0.0795
     22 C          17.0179   70.3422   -6.9505 C.ar    1  UNL1        0.2626
     23 H          16.9252   70.9087   -8.8945 H       1  UNL1        0.1734
     24 O          22.9791   71.4015   -0.8982 O.3     1  UNL1       -0.2703
     25 P          22.3459   71.0041    0.5353 P.3     1  UNL1        0.2208
     26 O          23.3984   69.9206    1.1170 O.co2   1  UNL1       -0.4371
     27 O          20.9282   70.5147    0.4678 O.2     1  UNL1       -0.5170
     28 O          22.5593   72.3130    1.4539 O.3     1  UNL1       -0.2858
     29 O          23.8132   72.8796    3.3816 O.3     1  UNL1       -0.3226
     30 O          20.1586   74.6166    4.2153 O.3     1  UNL1       -0.3794
     31 O          20.2948   71.9509    3.0278 O.3     1  UNL1       -0.3775
     32 O          22.4012   76.2661    3.3783 O.3     1  UNL1       -0.3792
     33 C          21.2263   74.1627    3.3834 C.3     1  UNL1        0.1718
     34 C          21.4094   72.6554    3.5625 C.3     1  UNL1        0.1968
     35 C          22.4979   74.9064    3.7981 C.3     1  UNL1        0.1723
     36 C          22.6835   72.1727    2.8680 C.3     1  UNL1        0.2706
     37 C          23.7385   74.2864    3.1616 C.3     1  UNL1        0.1830
     38 H          19.3398   74.1576    3.9700 H       1  UNL1        0.2105
     39 H          19.4828   72.2524    3.4638 H       1  UNL1        0.2106
     40 H          21.6155   76.6724    3.7764 H       1  UNL1        0.2106
     41 O          25.4961   75.8390    3.1214 O.co2   1  UNL1       -0.5466
     42 O          25.4714   74.3402    4.8396 O.co2   1  UNL1       -0.5466
     43 C          24.9812   74.7949    3.8168 C.2     1  UNL1        0.0799
@<TRIPOS>UNITY_ATOM_ATTR
2 1
charge -1
26 1
charge -1
41 1
charge -1
@<TRIPOS>BOND
     1     1     4    1
     2     1    24    1
     3     1     2    1
     4     1     3    2
     5    25    28    1
     6    25    24    1
     7    25    26    1
     8    25    27    2
     9     6    11    1
    10     6    12    1
    11    29    36    1
    12    29    37    1
    13     7     9    1
    14     7    13    1
    15     8    10    1
    16     8    14    1
    17     4     5    1
    18    28    36    1
    19    30    33    1
    20    30    38    1
    21    31    34    1
    22    31    39    1
    23    32    35    1
    24    32    40    1
    25    41    43   ar
    26    15    19    2
    27    42    43   ar
    28    16    22    2
    29    17    12    1
    30    17    19   ar
    31    17    20   ar
    32    18    19   ar
    33    18    22   ar
    34    18    23    1
    35     9    10    1
    36     9    11    1
    37    10    12    1
    38    11     5    1
    39    33    34    1
    40    33    35    1
    41    34    36    1
    42    35    37    1
    43    37    43    1
    44    20    21   ar
    45    21    22   ar
@<TRIPOS>MOLECULE
*****
 43 45 0 0 0
SMALL
GASTEIGER

@<TRIPOS>ATOM
      1 P          22.9004   72.1088   -3.0768 P.3     1  UNL1        0.2189
      2 O          23.6320   70.6730   -3.2261 O.co2   1  UNL1       -0.4371
      3 O          22.7534   72.6013   -1.6670 O.2     1  UNL1       -0.5170
      4 O          21.5226   71.9308   -3.9061 O.3     1  UNL1       -0.3112
      5 C          20.6871   70.8294   -3.6008 C.3     1  UNL1        0.1811
      6 O          18.8381   71.9059   -4.6964 O.3     1  UNL1       -0.3308
      7 O          17.1265   70.7811   -2.5062 O.3     1  UNL1       -0.3794
      8 O          16.6500   69.0684   -4.5740 O.3     1  UNL1       -0.3779
      9 C          18.2620   70.2048   -3.1519 C.3     1  UNL1        0.1713
     10 C          17.8927   69.7387   -4.5443 C.3     1  UNL1        0.1895
     11 C          19.2544   71.3223   -3.4428 C.3     1  UNL1        0.1764
     12 C          17.8710   71.0454   -5.3189 C.3     1  UNL1        0.2383
     13 H          16.4782   70.0861   -2.3103 H       1  UNL1        0.2105
     14 H          16.7156   68.2431   -4.0674 H       1  UNL1        0.2106
     15 O          16.0215   70.4718   -7.3748 O.2     1  UNL1       -0.2464
     16 O          19.3321   70.3922  -10.5806 O.2     1  UNL1       -0.2670
     17 N          18.2224   70.8698   -6.6997 N.ar    1  UNL1       -0.2551
     18 N          17.6723   70.4317   -8.9694 N.ar    1  UNL1       -0.2743
     19 C          17.2168   70.5841   -7.6532 C.ar    1  UNL1        0.3323
     20 C          19.5491   70.9824   -7.0974 C.ar    1  UNL1        0.0869
     21 C          19.9679   70.8345   -8.3558 C.ar    1  UNL1        0.0795
     22 C          18.9807   70.5337   -9.4133 C.ar    1  UNL1        0.2626
     23 H          16.9907   70.2303   -9.6507 H       1  UNL1        0.1734
     24 O          23.7810   73.0663   -4.0362 O.3     1  UNL1       -0.2703
     25 P          23.8920   74.6772   -4.1148 P.3     1  UNL1        0.2208
     26 O          25.4896   74.9376   -4.1293 O.co2   1  UNL1       -0.4371
     27 O          23.1577   75.3991   -3.0223 O.2     1  UNL1       -0.5170
     28 O          23.4054   75.0487   -5.6074 O.3     1  UNL1       -0.2858
     29 O          21.3859   75.9680   -6.4355 O.3     1  UNL1       -0.3226
     30 O          22.4173   73.3460   -9.4570 O.3     1  UNL1       -0.3794
     31 O          22.7117   72.5680   -6.6565 O.3     1  UNL1       -0.3775
     32 O          22.8071   76.2051   -9.8098 O.3     1  UNL1       -0.3792
     33 C          22.6563   74.2642   -8.3903 C.3     1  UNL1        0.1718
     34 C          22.0244   73.7306   -7.1044 C.3     1  UNL1        0.1968
     35 C          22.0308   75.6073   -8.7733 C.3     1  UNL1        0.1723
     36 C          22.0590   74.7866   -5.9988 C.3     1  UNL1        0.2706
     37 C          21.9885   76.5616   -7.5834 C.3     1  UNL1        0.1830
     38 H          22.8059   72.4850   -9.2359 H       1  UNL1        0.2105
     39 H          22.6939   71.8938   -7.3533 H       1  UNL1        0.2106
     40 H          22.8420   75.6076  -10.5732 H       1  UNL1        0.2106
     41 O          20.3641   77.5041   -8.9886 O.co2   1  UNL1       -0.5466
     42 O          21.0241   78.7376   -7.1880 O.co2   1  UNL1       -0.5466
     43 C          21.0948   77.7247   -7.8677 C.2     1  UNL1        0.0799
@<TRIPOS>UNITY_ATOM_ATTR
2 1
charge -1
26 1
charge -1
41 1
charge -1
@<TRIPOS>BOND
     1     1     4    1
     2     1    24    1
     3     1     2    1
     4     1     3    2
     5    25    28    1
     6    25    24    1
     7    25    26    1
     8    25    27    2
     9     6    11    1
    10     6    12    1
    11    29    36    1
    12    29    37    1
    13     7     9    1
    14     7    13    1
    15     8    10    1
    16     8    14    1
    17     4     5    1
    18    28    36    1
    19    30    33    1
    20    30    38    1
    21    31    34    1
    22    31    39    1
    23    32    35    1
    24    32    40    1
    25    41    43   ar
    26    15    19    2
    27    42    43   ar
    28    16    22    2
    29    17    12    1
    30    17    19   ar
    31    17    20   ar
    32    18    19   ar
    33    18    22   ar
    34    18    23    1
    35     9    10    1
    36     9    11    1
    37    10    12    1
    38    11     5    1
    39    33    34    1
    40    33    35    1
    41    34    36    1
    42    35    37    1
    43    37    43    1
    44    20    21   ar
    45    21    22   ar
@<TRIPOS>MOLECULE
*****
 43 45 0 0 0
SMALL
GASTEIGER

@<TRIPOS>ATOM
      1 P          22.7307   72.2143   -2.2941 P.3     1  UNL1        0.2189
      2 O          23.4432   71.2351   -3.3676 O.co2   1  UNL1       -0.4371
      3 O          22.6948   71.6931   -0.8874 O.2     1  UNL1       -0.5170
      4 O          21.2924   72.5396   -2.9598 O.3     1  UNL1       -0.3112
      5 C          20.6193   71.5055   -3.6541 C.3     1  UNL1        0.1811
      6 O          18.5818   72.1179   -4.7728 O.3     1  UNL1       -0.3308
      7 O          17.1516   70.7814   -2.5012 O.3     1  UNL1       -0.3794
      8 O          17.0289   68.9004   -4.4718 O.3     1  UNL1       -0.3779
      9 C          18.3784   70.4185   -3.1352 C.3     1  UNL1        0.1713
     10 C          18.1061   69.8134   -4.4961 C.3     1  UNL1        0.1895
     11 C          19.1165   71.6998   -3.4981 C.3     1  UNL1        0.1764
     12 C          17.8103   71.0447   -5.3353 C.3     1  UNL1        0.2383
     13 H          16.6622   69.9789   -2.2600 H       1  UNL1        0.2105
     14 H          17.2665   68.1344   -3.9252 H       1  UNL1        0.2106
     15 O          15.9826   70.5724   -7.4360 O.2     1  UNL1       -0.2464
     16 O          19.3535   70.4005  -10.5747 O.2     1  UNL1       -0.2670
     17 N          18.1832   70.8728   -6.7109 N.ar    1  UNL1       -0.2551
     18 N          17.6633   70.4862   -8.9971 N.ar    1  UNL1       -0.2743
     19 C          17.1870   70.6400   -7.6884 C.ar    1  UNL1        0.3323
     20 C          19.5213   70.9369   -7.0800 C.ar    1  UNL1        0.0869
     21 C          19.9600   70.7884   -8.3315 C.ar    1  UNL1        0.0795
     22 C          18.9838   70.5411   -9.4129 C.ar    1  UNL1        0.2626
     23 H          16.9886   70.3212   -9.6948 H       1  UNL1        0.1734
     24 O          23.5383   73.6025   -2.4774 O.3     1  UNL1       -0.2703
     25 P          23.8472   74.4845   -3.7966 P.3     1  UNL1        0.2208
     26 O          23.4208   75.9807   -3.3493 O.co2   1  UNL1       -0.4371
     27 O          23.1646   73.9926   -5.0400 O.2     1  UNL1       -0.5170
     28 O          25.4570   74.5308   -3.8903 O.3     1  UNL1       -0.2858
     29 O          27.0230   75.8155   -2.6628 O.3     1  UNL1       -0.3226
     30 O          28.8864   75.5047   -6.3370 O.3     1  UNL1       -0.3794
     31 O          26.0158   76.0209   -6.1714 O.3     1  UNL1       -0.3775
     32 O          29.8065   73.9007   -4.0939 O.3     1  UNL1       -0.3792
     33 C          28.0558   75.0787   -5.2568 C.3     1  UNL1        0.1718
     34 C          26.9117   76.0750   -5.0673 C.3     1  UNL1        0.1968
     35 C          28.9185   75.0125   -3.9946 C.3     1  UNL1        0.1723
     36 C          26.1368   75.7802   -3.7822 C.3     1  UNL1        0.2706
     37 C          28.0623   74.8426   -2.7429 C.3     1  UNL1        0.1830
     38 H          28.3595   75.5542   -7.1501 H       1  UNL1        0.2105
     39 H          26.5008   76.2067   -6.9903 H       1  UNL1        0.2106
     40 H          30.3571   73.9964   -4.8866 H       1  UNL1        0.2106
     41 O          29.7872   74.1311   -1.3217 O.co2   1  UNL1       -0.5466
     42 O          28.7195   76.0694   -0.7720 O.co2   1  UNL1       -0.5466
     43 C          28.8652   75.1073   -1.5110 C.2     1  UNL1        0.0799
@<TRIPOS>UNITY_ATOM_ATTR
2 1
charge -1
26 1
charge -1
41 1
charge -1
@<TRIPOS>BOND
     1     1     4    1
     2     1    24    1
     3     1     2    1
     4     1     3    2
     5    25    28    1
     6    25    24    1
     7    25    26    1
     8    25    27    2
     9     6    11    1
    10     6    12    1
    11    29    36    1
    12    29    37    1
    13     7     9    1
    14     7    13    1
    15     8    10    1
    16     8    14    1
    17     4     5    1
    18    28    36    1
    19    30    33    1
    20    30    38    1
    21    31    34    1
    22    31    39    1
    23    32    35    1
    24    32    40    1
    25    41    43   ar
    26    15    19    2
    27    42    43   ar
    28    16    22    2
    29    17    12    1
    30    17    19   ar
    31    17    20   ar
    32    18    19   ar
    33    18    22   ar
    34    18    23    1
    35     9    10    1
    36     9    11    1
    37    10    12    1
    38    11     5    1
    39    33    34    1
    40    33    35    1
    41    34    36    1
    42    35    37    1
    43    37    43    1
    44    20    21   ar
    45    21    22   ar
@<TRIPOS>MOLECULE
*****
 43 45 0 0 0
SMALL
GASTEIGER

@<TRIPOS>ATOM
      1 P          22.3751   70.5217   -0.2401 P.3     1  UNL1        0.2189
      2 O          23.5621   69.4983    0.1630 O.co2   1  UNL1       -0.4371
      3 O          20.9860   69.9836   -0.0594 O.2     1  UNL1       -0.5170
      4 O          22.7579   70.9888   -1.7412 O.3     1  UNL1       -0.3112
      5 C          21.7597   70.9281   -2.7434 C.3     1  UNL1        0.1811
      6 O          21.2737   71.8305   -4.9176 O.3     1  UNL1       -0.3308
      7 O          21.7756   74.5270   -3.7057 O.3     1  UNL1       -0.3794
      8 O          19.0525   74.3921   -3.7521 O.3     1  UNL1       -0.3779
      9 C          21.1688   73.3733   -3.1233 C.3     1  UNL1        0.1713
     10 C          19.7728   73.1797   -3.6764 C.3     1  UNL1        0.1895
     11 C          21.8943   72.1434   -3.6518 C.3     1  UNL1        0.1764
     12 C          20.0555   72.5812   -5.0438 C.3     1  UNL1        0.2383
     13 H          21.3288   75.3256   -3.3829 H       1  UNL1        0.2105
     14 H          18.8975   74.7325   -2.8565 H       1  UNL1        0.2106
     15 O          19.3565   72.1644   -7.7483 O.2     1  UNL1       -0.2464
     16 O          16.0240   69.1877   -6.6180 O.2     1  UNL1       -0.2670
     17 N          19.0092   71.7027   -5.4845 N.ar    1  UNL1       -0.2551
     18 N          17.6967   70.6830   -7.1827 N.ar    1  UNL1       -0.2743
     19 C          18.7384   71.5651   -6.8665 C.ar    1  UNL1        0.3323
     20 C          18.2655   70.9880   -4.5533 C.ar    1  UNL1        0.0869
     21 C          17.2757   70.1509   -4.8700 C.ar    1  UNL1        0.0795
     22 C          16.9284   69.9507   -6.2922 C.ar    1  UNL1        0.2626
     23 H          17.4883   70.5723   -8.1385 H       1  UNL1        0.1734
     24 O          22.7099   71.8323    0.6448 O.3     1  UNL1       -0.2703
     25 P          22.2313   73.3687    0.4892 P.3     1  UNL1        0.2208
     26 O          20.6291   73.2394    0.2979 O.co2   1  UNL1       -0.4371
     27 O          22.9263   74.1220   -0.6078 O.2     1  UNL1       -0.5170
     28 O          22.4157   74.0058    1.9597 O.3     1  UNL1       -0.2858
     29 O          23.9256   73.9353    3.7830 O.3     1  UNL1       -0.3226
     30 O          20.3022   73.3130    5.6676 O.3     1  UNL1       -0.3794
     31 O          20.8990   71.9905    3.1320 O.3     1  UNL1       -0.3775
     32 O          21.6163   75.8997    5.8494 O.3     1  UNL1       -0.3792
     33 C          21.1806   73.8420    4.6743 C.3     1  UNL1        0.1718
     34 C          21.8520   72.6935    3.9209 C.3     1  UNL1        0.1968
     35 C          22.2314   74.7010    5.3813 C.3     1  UNL1        0.1723
     36 C          22.9656   73.2133    3.0107 C.3     1  UNL1        0.2706
     37 C          23.3720   75.0740    4.4388 C.3     1  UNL1        0.1830
     38 H          19.6257   72.7634    5.2416 H       1  UNL1        0.2105
     39 H          20.1893   71.6581    3.7032 H       1  UNL1        0.2106
     40 H          20.8883   75.6763    6.4503 H       1  UNL1        0.2106
     41 O          24.2141   75.7824    6.5101 O.co2   1  UNL1       -0.5466
     42 O          25.6272   75.8828    4.7235 O.co2   1  UNL1       -0.5466
     43 C          24.5345   75.6194    5.2025 C.2     1  UNL1        0.0799
@<TRIPOS>UNITY_ATOM_ATTR
2 1
charge -1
26 1
charge -1
41 1
charge -1
@<TRIPOS>BOND
     1     1     4    1
     2     1    24    1
     3     1     2    1
     4     1     3    2
     5    25    28    1
     6    25    24    1
     7    25    26    1
     8    25    27    2
     9     6    11    1
    10     6    12    1
    11    29    36    1
    12    29    37    1
    13     7     9    1
    14     7    13    1
    15     8    10    1
    16     8    14    1
    17     4     5    1
    18    28    36    1
    19    30    33    1
    20    30    38    1
    21    31    34    1
    22    31    39    1
    23    32    35    1
    24    32    40    1
    25    41    43   ar
    26    15    19    2
    27    42    43   ar
    28    16    22    2
    29    17    12    1
    30    17    19   ar
    31    17    20   ar
    32    18    19   ar
    33    18    22   ar
    34    18    23    1
    35     9    10    1
    36     9    11    1
    37    10    12    1
    38    11     5    1
    39    33    34    1
    40    33    35    1
    41    34    36    1
    42    35    37    1
    43    37    43    1
    44    20    21   ar
    45    21    22   ar
@<TRIPOS>MOLECULE
*****
 43 45 0 0 0
SMALL
GASTEIGER

@<TRIPOS>ATOM
      1 P          21.4616   75.0616   -6.6466 P.3     1  UNL1        0.2189
      2 O          21.3078   76.4790   -7.4123 O.co2   1  UNL1       -0.4371
      3 O          22.8704   74.6789   -6.2991 O.2     1  UNL1       -0.5170
      4 O          20.6638   74.0199   -7.5933 O.3     1  UNL1       -0.3112
      5 C          21.2641   72.7701   -7.8796 C.3     1  UNL1        0.1811
      6 O          19.9665   70.7637   -8.1413 O.3     1  UNL1       -0.3308
      7 O          18.5554   72.1892  -10.3703 O.3     1  UNL1       -0.3794
      8 O          16.7878   72.4138   -8.3060 O.3     1  UNL1       -0.3779
      9 C          19.0536   72.7093   -9.1374 C.3     1  UNL1        0.1713
     10 C          18.1588   72.2879   -7.9911 C.3     1  UNL1        0.1895
     11 C          20.3517   71.9834   -8.8118 C.3     1  UNL1        0.1764
     12 C          18.5794   70.8438   -7.7771 C.3     1  UNL1        0.2383
     13 H          17.7260   72.6379  -10.5992 H       1  UNL1        0.2105
     14 H          16.5699   73.3511   -8.4324 H       1  UNL1        0.2106
     15 O          16.1970   69.7949   -6.6813 O.2     1  UNL1       -0.2464
     16 O          18.1220   69.2745   -2.5258 O.2     1  UNL1       -0.2670
     17 N          18.4303   70.4263   -6.4117 N.ar    1  UNL1       -0.2551
     18 N          17.1578   69.5377   -4.6124 N.ar    1  UNL1       -0.2743
     19 C          17.1907   69.9133   -5.9618 C.ar    1  UNL1        0.3323
     20 C          19.5039   70.5250   -5.5350 C.ar    1  UNL1        0.0869
     21 C          19.4573   70.1628   -4.2515 C.ar    1  UNL1        0.0795
     22 C          18.1988   69.6177   -3.7017 C.ar    1  UNL1        0.2626
     23 H          16.3047   69.1796   -4.2757 H       1  UNL1        0.1734
     24 O          20.4758   75.2266   -5.3763 O.3     1  UNL1       -0.2703
     25 P          20.7930   75.3568   -3.7964 P.3     1  UNL1        0.2208
     26 O          19.3209   75.4529   -3.1302 O.co2   1  UNL1       -0.4371
     27 O          21.7070   76.4943   -3.4435 O.2     1  UNL1       -0.5170
     28 O          21.3397   73.9009   -3.3674 O.3     1  UNL1       -0.2858
     29 O          22.1264   73.4977   -1.1702 O.3     1  UNL1       -0.3226
     30 O          23.7992   70.3465   -3.2534 O.3     1  UNL1       -0.3794
     31 O          23.7711   73.0325   -4.4021 O.3     1  UNL1       -0.3775
     32 O          21.4941   69.9024   -1.5387 O.3     1  UNL1       -0.3792
     33 C          22.8134   71.3355   -2.9566 C.3     1  UNL1        0.1718
     34 C          23.4395   72.7270   -3.0525 C.3     1  UNL1        0.1968
     35 C          22.2991   71.0798   -1.5382 C.3     1  UNL1        0.1723
     36 C          22.4829   73.7952   -2.5207 C.3     1  UNL1        0.2706
     37 C          21.4560   72.2469   -1.0325 C.3     1  UNL1        0.1830
     38 H          24.1406   70.4890   -4.1503 H       1  UNL1        0.2105
     39 H          24.3776   72.3585   -4.7460 H       1  UNL1        0.2106
     40 H          22.0189   69.1520   -1.8587 H       1  UNL1        0.2106
     41 O          21.3019   70.8510    0.8462 O.co2   1  UNL1       -0.5466
     42 O          21.0314   73.0890    1.1883 O.co2   1  UNL1       -0.5466
     43 C          21.2376   72.1438    0.4420 C.2     1  UNL1        0.0799
@<TRIPOS>UNITY_ATOM_ATTR
2 1
charge -1
26 1
charge -1
41 1
charge -1
@<TRIPOS>BOND
     1     1     4    1
     2     1    24    1
     3     1     2    1
     4     1     3    2
     5    25    28    1
     6    25    24    1
     7    25    26    1
     8    25    27    2
     9     6    11    1
    10     6    12    1
    11    29    36    1
    12    29    37    1
    13     7     9    1
    14     7    13    1
    15     8    10    1
    16     8    14    1
    17     4     5    1
    18    28    36    1
    19    30    33    1
    20    30    38    1
    21    31    34    1
    22    31    39    1
    23    32    35    1
    24    32    40    1
    25    41    43   ar
    26    15    19    2
    27    42    43   ar
    28    16    22    2
    29    17    12    1
    30    17    19   ar
    31    17    20   ar
    32    18    19   ar
    33    18    22   ar
    34    18    23    1
    35     9    10    1
    36     9    11    1
    37    10    12    1
    38    11     5    1
    39    33    34    1
    40    33    35    1
    41    34    36    1
    42    35    37    1
    43    37    43    1
    44    20    21   ar
    45    21    22   ar
@<TRIPOS>MOLECULE
*****
 43 45 0 0 0
SMALL
GASTEIGER

@<TRIPOS>ATOM
      1 P          21.5302   70.7237   -2.6849 P.3     1  UNL1        0.2189
      2 O          22.3236   71.4303   -3.9056 O.co2   1  UNL1       -0.4371
      3 O          21.2971   69.2505   -2.8492 O.2     1  UNL1       -0.5170
      4 O          20.2015   71.6300   -2.5089 O.3     1  UNL1       -0.3112
      5 C          19.3405   71.7909   -3.6212 C.3     1  UNL1        0.1811
      6 O          19.8711   73.3744   -5.3500 O.3     1  UNL1       -0.3308
      7 O          18.0061   75.2541   -3.9428 O.3     1  UNL1       -0.3794
      8 O          16.4798   74.3346   -6.0070 O.3     1  UNL1       -0.3779
      9 C          17.9105   73.8387   -4.1045 C.3     1  UNL1        0.1713
     10 C          17.5116   73.4993   -5.5250 C.3     1  UNL1        0.1895
     11 C          19.3165   73.2604   -4.0215 C.3     1  UNL1        0.1764
     12 C          18.8188   73.6927   -6.2745 C.3     1  UNL1        0.2383
     13 H          17.1198   75.6461   -3.9922 H       1  UNL1        0.2105
     14 H          15.6692   74.1736   -5.4981 H       1  UNL1        0.2106
     15 O          19.9249   74.4695   -8.7543 O.2     1  UNL1       -0.2464
     16 O          19.1816   70.3101  -10.5958 O.2     1  UNL1       -0.2670
     17 N          18.9267   72.8328   -7.4189 N.ar    1  UNL1       -0.2551
     18 N          19.5527   72.3975   -9.6694 N.ar    1  UNL1       -0.2743
     19 C          19.4985   73.3213   -8.6175 C.ar    1  UNL1        0.3323
     20 C          18.4711   71.5220   -7.3469 C.ar    1  UNL1        0.0869
     21 C          18.5297   70.6531   -8.3581 C.ar    1  UNL1        0.0795
     22 C          19.1121   71.0841   -9.6459 C.ar    1  UNL1        0.2626
     23 H          19.9448   72.7152  -10.5148 H       1  UNL1        0.1734
     24 O          22.4175   71.1253   -1.3948 O.3     1  UNL1       -0.2703
     25 P          22.4850   70.4847    0.0881 P.3     1  UNL1        0.2208
     26 O          23.9334   69.7624    0.1134 O.co2   1  UNL1       -0.4371
     27 O          21.3357   69.5775    0.4199 O.2     1  UNL1       -0.5170
     28 O          22.6444   71.7514    1.0742 O.3     1  UNL1       -0.2858
     29 O          21.8976   72.4017    3.2256 O.3     1  UNL1       -0.3226
     30 O          21.2271   75.8360    1.0294 O.3     1  UNL1       -0.3794
     31 O          20.5842   73.2145   -0.0881 O.3     1  UNL1       -0.3775
     32 O          23.4879   75.6869    2.8508 O.3     1  UNL1       -0.3792
     33 C          21.8969   74.6265    1.3848 C.3     1  UNL1        0.1718
     34 C          20.9251   73.4515    1.2729 C.3     1  UNL1        0.1968
     35 C          22.3971   74.7682    2.8241 C.3     1  UNL1        0.1723
     36 C          21.5351   72.1790    1.8624 C.3     1  UNL1        0.2706
     37 C          22.8725   73.4302    3.3830 C.3     1  UNL1        0.1830
     38 H          20.9003   75.7692    0.1184 H       1  UNL1        0.2105
     39 H          20.1968   74.0180   -0.4685 H       1  UNL1        0.2106
     40 H          23.1986   76.5427    2.4975 H       1  UNL1        0.2106
     41 O          24.1167   74.2720    5.1844 O.co2   1  UNL1       -0.5466
     42 O          22.3220   72.9573    5.6840 O.co2   1  UNL1       -0.5466
     43 C          23.0445   73.5055    4.8653 C.2     1  UNL1        0.0799
@<TRIPOS>UNITY_ATOM_ATTR
2 1
charge -1
26 1
charge -1
41 1
charge -1
@<TRIPOS>BOND
     1     1     4    1
     2     1    24    1
     3     1     2    1
     4     1     3    2
     5    25    28    1
     6    25    24    1
     7    25    26    1
     8    25    27    2
     9     6    11    1
    10     6    12    1
    11    29    36    1
    12    29    37    1
    13     7     9    1
    14     7    13    1
    15     8    10    1
    16     8    14    1
    17     4     5    1
    18    28    36    1
    19    30    33    1
    20    30    38    1
    21    31    34    1
    22    31    39    1
    23    32    35    1
    24    32    40    1
    25    41    43   ar
    26    15    19    2
    27    42    43   ar
    28    16    22    2
    29    17    12    1
    30    17    19   ar
    31    17    20   ar
    32    18    19   ar
    33    18    22   ar
    34    18    23    1
    35     9    10    1
    36     9    11    1
    37    10    12    1
    38    11     5    1
    39    33    34    1
    40    33    35    1
    41    34    36    1
    42    35    37    1
    43    37    43    1
    44    20    21   ar
    45    21    22   ar
@<TRIPOS>MOLECULE
*****
 43 45 0 0 0
SMALL
GASTEIGER

@<TRIPOS>ATOM
      1 P          22.6691   72.0750   -2.1406 P.3     1  UNL1        0.2189
      2 O          23.1483   71.2561   -3.4516 O.co2   1  UNL1       -0.4371
      3 O          23.0903   71.4763   -0.8307 O.2     1  UNL1       -0.5170
      4 O          21.0746   72.2496   -2.3529 O.3     1  UNL1       -0.3112
      5 C          20.4819   71.6934   -3.5122 C.3     1  UNL1        0.1811
      6 O          18.4216   72.1418   -4.6660 O.3     1  UNL1       -0.3308
      7 O          17.0623   70.7091   -2.4096 O.3     1  UNL1       -0.3794
      8 O          17.1165   68.8156   -4.3712 O.3     1  UNL1       -0.3779
      9 C          18.3234   70.4392   -3.0223 C.3     1  UNL1        0.1713
     10 C          18.1205   69.8088   -4.3838 C.3     1  UNL1        0.1895
     11 C          18.9664   71.7719   -3.3809 C.3     1  UNL1        0.1764
     12 C          17.7442   71.0099   -5.2345 C.3     1  UNL1        0.2383
     13 H          16.6324   69.8724   -2.1716 H       1  UNL1        0.2105
     14 H          17.4036   68.0726   -3.8166 H       1  UNL1        0.2106
     15 O          15.9799   70.4733   -7.3736 O.2     1  UNL1       -0.2464
     16 O          19.4168   70.4590  -10.4447 O.2     1  UNL1       -0.2670
     17 N          18.1512   70.8611   -6.6031 N.ar    1  UNL1       -0.2551
     18 N          17.6935   70.4657   -8.9010 N.ar    1  UNL1       -0.2743
     19 C          17.1852   70.5924   -7.6015 C.ar    1  UNL1        0.3323
     20 C          19.4925   70.9828   -6.9450 C.ar    1  UNL1        0.0869
     21 C          19.9619   70.8596   -8.1881 C.ar    1  UNL1        0.0795
     22 C          19.0185   70.5778   -9.2899 C.ar    1  UNL1        0.2626
     23 H          17.0402   70.2765   -9.6129 H       1  UNL1        0.1734
     24 O          23.2373   73.5632   -2.4145 O.3     1  UNL1       -0.2703
     25 P          23.2242   74.4754   -3.7492 P.3     1  UNL1        0.2208
     26 O          21.9974   75.4982   -3.4861 O.co2   1  UNL1       -0.4371
     27 O          23.1156   73.6952   -5.0273 O.2     1  UNL1       -0.5170
     28 O          24.5484   75.3895   -3.6333 O.3     1  UNL1       -0.2858
     29 O          26.6942   74.8279   -4.4634 O.3     1  UNL1       -0.3226
     30 O          27.6344   77.4274   -1.3931 O.3     1  UNL1       -0.3794
     31 O          25.5519   75.4093   -1.0394 O.3     1  UNL1       -0.3775
     32 O          27.7920   78.3154   -4.1567 O.3     1  UNL1       -0.3792
     33 C          26.8415   76.8982   -2.4558 C.3     1  UNL1        0.1718
     34 C          26.4567   75.4534   -2.1367 C.3     1  UNL1        0.1968
     35 C          27.6720   76.9566   -3.7398 C.3     1  UNL1        0.1723
     36 C          25.8060   74.7806   -3.3461 C.3     1  UNL1        0.2706
     37 C          27.0178   76.1577   -4.8633 C.3     1  UNL1        0.1830
     38 H          27.1271   77.4004   -0.5665 H       1  UNL1        0.2105
     39 H          25.9583   75.8347   -0.2685 H       1  UNL1        0.2106
     40 H          28.2069   78.8349   -3.4504 H       1  UNL1        0.2106
     41 O          28.3186   77.1291   -6.5562 O.co2   1  UNL1       -0.5466
     42 O          28.3977   74.8590   -6.3568 O.co2   1  UNL1       -0.5466
     43 C          27.9753   75.9454   -5.9904 C.2     1  UNL1        0.0799
@<TRIPOS>UNITY_ATOM_ATTR
2 1
charge -1
26 1
charge -1
41 1
charge -1
@<TRIPOS>BOND
     1     1     4    1
     2     1    24    1
     3     1     2    1
     4     1     3    2
     5    25    28    1
     6    25    24    1
     7    25    26    1
     8    25    27    2
     9     6    11    1
    10     6    12    1
    11    29    36    1
    12    29    37    1
    13     7     9    1
    14     7    13    1
    15     8    10    1
    16     8    14    1
    17     4     5    1
    18    28    36    1
    19    30    33    1
    20    30    38    1
    21    31    34    1
    22    31    39    1
    23    32    35    1
    24    32    40    1
    25    41    43   ar
    26    15    19    2
    27    42    43   ar
    28    16    22    2
    29    17    12    1
    30    17    19   ar
    31    17    20   ar
    32    18    19   ar
    33    18    22   ar
    34    18    23    1
    35     9    10    1
    36     9    11    1
    37    10    12    1
    38    11     5    1
    39    33    34    1
    40    33    35    1
    41    34    36    1
    42    35    37    1
    43    37    43    1
    44    20    21   ar
    45    21    22   ar
@<TRIPOS>MOLECULE
*****
 43 45 0 0 0
SMALL
GASTEIGER

@<TRIPOS>ATOM
      1 P          22.1221   71.1550   -2.7929 P.3     1  UNL1        0.2189
      2 O          23.5574   70.8095   -3.4558 O.co2   1  UNL1       -0.4371
      3 O          21.0833   70.0816   -2.9360 O.2     1  UNL1       -0.5170
      4 O          21.7379   72.5935   -3.4260 O.3     1  UNL1       -0.3112
      5 C          20.7099   72.6517   -4.3978 C.3     1  UNL1        0.1811
      6 O          20.1431   71.6814   -6.5226 O.3     1  UNL1       -0.3308
      7 O          22.8417   72.6003   -7.4524 O.3     1  UNL1       -0.3794
      8 O          21.1774   74.4963   -8.4874 O.3     1  UNL1       -0.3779
      9 C          21.9324   73.2332   -6.5518 C.3     1  UNL1        0.1713
     10 C          20.7664   73.8257   -7.3144 C.3     1  UNL1        0.1895
     11 C          21.2551   72.1469   -5.7275 C.3     1  UNL1        0.1764
     12 C          19.9244   72.5959   -7.6085 C.3     1  UNL1        0.2383
     13 H          23.2867   73.2745   -7.9901 H       1  UNL1        0.2105
     14 H          21.7098   75.2714   -8.2470 H       1  UNL1        0.2106
     15 O          18.5722   73.2614   -9.9971 O.2     1  UNL1       -0.2464
     16 O          14.5473   73.7351   -7.8017 O.2     1  UNL1       -0.2670
     17 N          18.5232   72.8977   -7.6897 N.ar    1  UNL1       -0.2551
     18 N          16.5691   73.4977   -8.9012 N.ar    1  UNL1       -0.2743
     19 C          17.9419   73.2200   -8.9388 C.ar    1  UNL1        0.3323
     20 C          17.7403   72.8711   -6.5420 C.ar    1  UNL1        0.0869
     21 C          16.4330   73.1380   -6.5219 C.ar    1  UNL1        0.0795
     22 C          15.7487   73.4847   -7.7848 C.ar    1  UNL1        0.2626
     23 H          16.1425   73.7267   -9.7585 H       1  UNL1        0.1734
     24 O          22.5063   71.5209   -1.2660 O.3     1  UNL1       -0.2703
     25 P          22.4026   70.6505    0.0924 P.3     1  UNL1        0.2208
     26 O          23.7492   69.7528    0.0602 O.co2   1  UNL1       -0.4371
     27 O          21.1340   69.8579    0.2206 O.2     1  UNL1       -0.5170
     28 O          22.6504   71.7140    1.2799 O.3     1  UNL1       -0.2858
     29 O          21.9467   72.4580    3.4154 O.3     1  UNL1       -0.3226
     30 O          21.1200   75.7520    1.0629 O.3     1  UNL1       -0.3794
     31 O          20.5187   73.0589    0.1038 O.3     1  UNL1       -0.3775
     32 O          23.4343   75.7591    2.8221 O.3     1  UNL1       -0.3792
     33 C          21.8327   74.5810    1.4613 C.3     1  UNL1        0.1718
     34 C          20.8910   73.3767    1.4399 C.3     1  UNL1        0.1968
     35 C          22.3690   74.8121    2.8758 C.3     1  UNL1        0.1723
     36 C          21.5522   72.1537    2.0770 C.3     1  UNL1        0.2706
     37 C          22.8968   73.5186    3.4898 C.3     1  UNL1        0.1830
     38 H          20.7697   75.6283    0.1666 H       1  UNL1        0.2105
     39 H          20.0987   73.8305   -0.3066 H       1  UNL1        0.2106
     40 H          23.1117   76.5870    2.4331 H       1  UNL1        0.2106
     41 O          22.2911   72.8461    5.6536 O.co2   1  UNL1       -0.5466
     42 O          23.9067   74.4452    5.4754 O.co2   1  UNL1       -0.5466
     43 C          23.1082   73.6771    4.9603 C.2     1  UNL1        0.0799
@<TRIPOS>UNITY_ATOM_ATTR
2 1
charge -1
26 1
charge -1
41 1
charge -1
@<TRIPOS>BOND
     1     1     4    1
     2     1    24    1
     3     1     2    1
     4     1     3    2
     5    25    28    1
     6    25    24    1
     7    25    26    1
     8    25    27    2
     9     6    11    1
    10     6    12    1
    11    29    36    1
    12    29    37    1
    13     7     9    1
    14     7    13    1
    15     8    10    1
    16     8    14    1
    17     4     5    1
    18    28    36    1
    19    30    33    1
    20    30    38    1
    21    31    34    1
    22    31    39    1
    23    32    35    1
    24    32    40    1
    25    41    43   ar
    26    15    19    2
    27    42    43   ar
    28    16    22    2
    29    17    12    1
    30    17    19   ar
    31    17    20   ar
    32    18    19   ar
    33    18    22   ar
    34    18    23    1
    35     9    10    1
    36     9    11    1
    37    10    12    1
    38    11     5    1
    39    33    34    1
    40    33    35    1
    41    34    36    1
    42    35    37    1
    43    37    43    1
    44    20    21   ar
    45    21    22   ar
@<TRIPOS>MOLECULE
*****
 43 45 0 0 0
SMALL
GASTEIGER

@<TRIPOS>ATOM
      1 P          21.8621   74.6996   -5.5657 P.3     1  UNL1        0.2189
      2 O          21.0450   76.0723   -5.3068 O.co2   1  UNL1       -0.4371
      3 O          23.2378   74.8795   -6.1375 O.2     1  UNL1       -0.5170
      4 O          20.8456   73.8031   -6.4494 O.3     1  UNL1       -0.3112
      5 C          19.8831   74.4637   -7.2504 C.3     1  UNL1        0.1811
      6 O          19.6149   72.1815   -7.9554 O.3     1  UNL1       -0.3308
      7 O          17.9074   73.2618  -10.1710 O.3     1  UNL1       -0.3794
      8 O          16.0594   72.3556   -8.3823 O.3     1  UNL1       -0.3779
      9 C          18.0286   73.7125   -8.8217 C.3     1  UNL1        0.1713
     10 C          17.3181   72.7589   -7.8847 C.3     1  UNL1        0.1895
     11 C          19.4826   73.5489   -8.4006 C.3     1  UNL1        0.1764
     12 C          18.3072   71.6092   -7.7953 C.3     1  UNL1        0.2383
     13 H          16.9867   73.3567  -10.4625 H       1  UNL1        0.2105
     14 H          15.4658   73.1226   -8.4199 H       1  UNL1        0.2106
     15 O          16.1495   69.9912   -6.9567 O.2     1  UNL1       -0.2464
     16 O          18.1799   69.0550   -2.9263 O.2     1  UNL1       -0.2670
     17 N          18.2459   70.9307   -6.5316 N.ar    1  UNL1       -0.2551
     18 N          17.1624   69.5273   -4.9497 N.ar    1  UNL1       -0.2743
     19 C          17.1164   70.1426   -6.2076 C.ar    1  UNL1        0.3323
     20 C          19.2967   71.0479   -5.6299 C.ar    1  UNL1        0.0869
     21 C          19.3262   70.4553   -4.4346 C.ar    1  UNL1        0.0795
     22 C          18.1845   69.6146   -4.0185 C.ar    1  UNL1        0.2626
     23 H          16.3862   68.9750   -4.7010 H       1  UNL1        0.1734
     24 O          21.8228   73.9759   -4.1209 O.3     1  UNL1       -0.2703
     25 P          20.8028   74.1425   -2.8777 P.3     1  UNL1        0.2208
     26 O          19.3533   73.8885   -3.5520 O.co2   1  UNL1       -0.4371
     27 O          20.9262   75.4503   -2.1509 O.2     1  UNL1       -0.5170
     28 O          21.0591   72.8402   -1.9607 O.3     1  UNL1       -0.2858
     29 O          22.8578   73.3323   -0.5007 O.3     1  UNL1       -0.3226
     30 O          21.9106   69.4662    0.6056 O.3     1  UNL1       -0.3794
     31 O          21.9743   70.2260   -2.2145 O.3     1  UNL1       -0.3775
     32 O          21.1195   71.7008    2.2883 O.3     1  UNL1       -0.3792
     33 C          21.6505   70.7847    0.1241 C.3     1  UNL1        0.1718
     34 C          22.4602   71.0338   -1.1486 C.3     1  UNL1        0.1968
     35 C          22.0576   71.7760    1.2166 C.3     1  UNL1        0.1723
     36 C          22.3874   72.5037   -1.5644 C.3     1  UNL1        0.2706
     37 C          22.0816   73.2076    0.6889 C.3     1  UNL1        0.1830
     38 H          21.6596   68.8189   -0.0721 H       1  UNL1        0.2105
     39 H          22.0174   69.2920   -1.9574 H       1  UNL1        0.2106
     40 H          21.0944   70.7945    2.6331 H       1  UNL1        0.2106
     41 O          22.0124   74.3568    2.7325 O.co2   1  UNL1       -0.5466
     42 O          23.9054   74.5748    1.4802 O.co2   1  UNL1       -0.5466
     43 C          22.7860   74.1138    1.6455 C.2     1  UNL1        0.0799
@<TRIPOS>UNITY_ATOM_ATTR
2 1
charge -1
26 1
charge -1
41 1
charge -1
@<TRIPOS>BOND
     1     1     4    1
     2     1    24    1
     3     1     2    1
     4     1     3    2
     5    25    28    1
     6    25    24    1
     7    25    26    1
     8    25    27    2
     9     6    11    1
    10     6    12    1
    11    29    36    1
    12    29    37    1
    13     7     9    1
    14     7    13    1
    15     8    10    1
    16     8    14    1
    17     4     5    1
    18    28    36    1
    19    30    33    1
    20    30    38    1
    21    31    34    1
    22    31    39    1
    23    32    35    1
    24    32    40    1
    25    41    43   ar
    26    15    19    2
    27    42    43   ar
    28    16    22    2
    29    17    12    1
    30    17    19   ar
    31    17    20   ar
    32    18    19   ar
    33    18    22   ar
    34    18    23    1
    35     9    10    1
    36     9    11    1
    37    10    12    1
    38    11     5    1
    39    33    34    1
    40    33    35    1
    41    34    36    1
    42    35    37    1
    43    37    43    1
    44    20    21   ar
    45    21    22   ar
@<TRIPOS>MOLECULE
*****
 43 45 0 0 0
SMALL
GASTEIGER

@<TRIPOS>ATOM
      1 P          19.2224   70.5513   -3.9513 P.3     1  UNL1        0.2189
      2 O          18.2570   69.3854   -3.3792 O.co2   1  UNL1       -0.4371
      3 O          18.7505   71.9511   -3.6871 O.2     1  UNL1       -0.5170
      4 O          19.4238   70.1598   -5.5083 O.3     1  UNL1       -0.3112
      5 C          19.5246   71.2030   -6.4601 C.3     1  UNL1        0.1811
      6 O          17.3422   70.9628   -7.4384 O.3     1  UNL1       -0.3308
      7 O          18.7356   70.9711  -10.0936 O.3     1  UNL1       -0.3794
      8 O          17.7783   73.5182   -9.9150 O.3     1  UNL1       -0.3779
      9 C          19.0456   71.7039   -8.9081 C.3     1  UNL1        0.1713
     10 C          18.0523   72.8297   -8.7128 C.3     1  UNL1        0.1895
     11 C          18.7517   70.8086   -7.7121 C.3     1  UNL1        0.1764
     12 C          16.8399   72.0904   -8.1730 C.3     1  UNL1        0.2383
     13 H          18.9154   71.5228  -10.8714 H       1  UNL1        0.2105
     14 H          18.5809   73.9725  -10.2176 H       1  UNL1        0.2106
     15 O          14.8901   73.9407   -9.0396 O.2     1  UNL1       -0.2464
     16 O          13.8614   75.1597   -4.7153 O.2     1  UNL1       -0.2670
     17 N          16.0479   72.9044   -7.2949 N.ar    1  UNL1       -0.2551
     18 N          14.3803   74.5468   -6.8851 N.ar    1  UNL1       -0.2743
     19 C          15.0957   73.8025   -7.8323 C.ar    1  UNL1        0.3323
     20 C          16.2167   72.8076   -5.9190 C.ar    1  UNL1        0.0869
     21 C          15.5273   73.5236   -5.0286 C.ar    1  UNL1        0.0795
     22 C          14.5133   74.4859   -5.5073 C.ar    1  UNL1        0.2626
     23 H          13.7131   75.1803   -7.2354 H       1  UNL1        0.1734
     24 O          20.6556   70.1892   -3.2972 O.3     1  UNL1       -0.2703
     25 P          21.9170   71.1269   -2.9190 P.3     1  UNL1        0.2208
     26 O          21.6462   72.4741   -3.7746 O.co2   1  UNL1       -0.4371
     27 O          23.2539   70.4922   -3.1716 O.2     1  UNL1       -0.5170
     28 O          21.6603   71.5596   -1.3862 O.3     1  UNL1       -0.2858
     29 O          23.3247   72.9008   -0.3663 O.3     1  UNL1       -0.3226
     30 O          21.0659   71.7412    2.8927 O.3     1  UNL1       -0.3794
     31 O          21.7202   69.8248    0.7871 O.3     1  UNL1       -0.3775
     32 O          20.8232   74.4378    1.8342 O.3     1  UNL1       -0.3792
     33 C          21.3012   72.0960    1.5301 C.3     1  UNL1        0.1718
     34 C          22.3006   71.1180    0.9118 C.3     1  UNL1        0.1968
     35 C          21.8628   73.5194    1.5022 C.3     1  UNL1        0.1723
     36 C          22.7519   71.5966   -0.4687 C.3     1  UNL1        0.2706
     37 C          22.4069   73.8766    0.1221 C.3     1  UNL1        0.1830
     38 H          20.7087   70.8402    2.9353 H       1  UNL1        0.2105
     39 H          21.4312   69.5150    1.6594 H       1  UNL1        0.2106
     40 H          20.4681   74.2213    2.7105 H       1  UNL1        0.2106
     41 O          22.4497   76.2206    0.1976 O.co2   1  UNL1       -0.5466
     42 O          24.4587   75.1424    0.2206 O.co2   1  UNL1       -0.5466
     43 C          23.2376   75.1170    0.1842 C.2     1  UNL1        0.0799
@<TRIPOS>UNITY_ATOM_ATTR
2 1
charge -1
26 1
charge -1
41 1
charge -1
@<TRIPOS>BOND
     1     1     4    1
     2     1    24    1
     3     1     2    1
     4     1     3    2
     5    25    28    1
     6    25    24    1
     7    25    26    1
     8    25    27    2
     9     6    11    1
    10     6    12    1
    11    29    36    1
    12    29    37    1
    13     7     9    1
    14     7    13    1
    15     8    10    1
    16     8    14    1
    17     4     5    1
    18    28    36    1
    19    30    33    1
    20    30    38    1
    21    31    34    1
    22    31    39    1
    23    32    35    1
    24    32    40    1
    25    41    43   ar
    26    15    19    2
    27    42    43   ar
    28    16    22    2
    29    17    12    1
    30    17    19   ar
    31    17    20   ar
    32    18    19   ar
    33    18    22   ar
    34    18    23    1
    35     9    10    1
    36     9    11    1
    37    10    12    1
    38    11     5    1
    39    33    34    1
    40    33    35    1
    41    34    36    1
    42    35    37    1
    43    37    43    1
    44    20    21   ar
    45    21    22   ar
@<TRIPOS>MOLECULE
*****
 43 45 0 0 0
SMALL
GASTEIGER

@<TRIPOS>ATOM
      1 P          17.9634   72.7051   -2.1541 P.3     1  UNL1        0.2189
      2 O          18.1837   73.9376   -3.1795 O.co2   1  UNL1       -0.4371
      3 O          16.6535   72.7165   -1.4220 O.2     1  UNL1       -0.5170
      4 O          19.2878   72.7312   -1.2251 O.3     1  UNL1       -0.3112
      5 C          20.3486   73.5974   -1.5841 C.3     1  UNL1        0.1811
      6 O          22.3579   73.1526   -0.3421 O.3     1  UNL1       -0.3308
      7 O          22.6394   70.6946   -2.0364 O.3     1  UNL1       -0.3794
      8 O          21.6279   69.7003    0.2926 O.3     1  UNL1       -0.3779
      9 C          21.4565   71.3080   -1.5235 C.3     1  UNL1        0.1713
     10 C          21.3288   71.0401   -0.0388 C.3     1  UNL1        0.1895
     11 C          21.6565   72.8169   -1.5590 C.3     1  UNL1        0.1764
     12 C          22.3274   72.0242    0.5462 C.3     1  UNL1        0.2383
     13 H          22.5353   69.7299   -2.0237 H       1  UNL1        0.2105
     14 H          20.9637   69.1134   -0.1027 H       1  UNL1        0.2106
     15 O          23.0887   70.7466    2.9472 O.2     1  UNL1       -0.2464
     16 O          20.8273   73.8310    5.5194 O.2     1  UNL1       -0.2670
     17 N          21.9516   72.4722    1.8573 N.ar    1  UNL1       -0.2551
     18 N          21.9608   72.2834    4.2260 N.ar    1  UNL1       -0.2743
     19 C          22.3868   71.7583    2.9988 C.ar    1  UNL1        0.3323
     20 C          21.1626   73.6067    2.0029 C.ar    1  UNL1        0.0869
     21 C          20.7646   74.0952    3.1793 C.ar    1  UNL1        0.0795
     22 C          21.1754   73.4079    4.4212 C.ar    1  UNL1        0.2626
     23 H          22.2497   71.8023    5.0349 H       1  UNL1        0.1734
     24 O          18.2009   71.4082   -3.0892 O.3     1  UNL1       -0.2703
     25 P          17.4106   70.8848   -4.3988 P.3     1  UNL1        0.2208
     26 O          15.9617   71.5940   -4.2645 O.co2   1  UNL1       -0.4371
     27 O          17.3577   69.3901   -4.5297 O.2     1  UNL1       -0.5170
     28 O          18.1207   71.6404   -5.6346 O.3     1  UNL1       -0.2858
     29 O          19.3551   70.6420   -7.3921 O.3     1  UNL1       -0.3226
     30 O          21.0534   74.4034   -7.2032 O.3     1  UNL1       -0.3794
     31 O          20.4164   72.9416   -4.7554 O.3     1  UNL1       -0.3775
     32 O          19.2005   73.7449   -9.3442 O.3     1  UNL1       -0.3792
     33 C          20.0060   73.4395   -7.0941 C.3     1  UNL1        0.1718
     34 C          20.3916   72.3793   -6.0623 C.3     1  UNL1        0.1968
     35 C          19.8094   72.7972   -8.4692 C.3     1  UNL1        0.1723
     36 C          19.4049   71.2111   -6.0832 C.3     1  UNL1        0.2706
     37 C          18.9135   71.5648   -8.3854 C.3     1  UNL1        0.1830
     38 H          21.1963   74.8248   -6.3410 H       1  UNL1        0.2105
     39 H          21.0403   73.6837   -4.7349 H       1  UNL1        0.2106
     40 H          19.7607   74.5343   -9.4062 H       1  UNL1        0.2106
     41 O          18.3918   69.5598   -9.4851 O.co2   1  UNL1       -0.5466
     42 O          19.5209   71.1389  -10.6813 O.co2   1  UNL1       -0.5466
     43 C          18.9923   70.7651   -9.6450 C.2     1  UNL1        0.0799
@<TRIPOS>UNITY_ATOM_ATTR
2 1
charge -1
26 1
charge -1
41 1
charge -1
@<TRIPOS>BOND
     1     1     4    1
     2     1    24    1
     3     1     2    1
     4     1     3    2
     5    25    28    1
     6    25    24    1
     7    25    26    1
     8    25    27    2
     9     6    11    1
    10     6    12    1
    11    29    36    1
    12    29    37    1
    13     7     9    1
    14     7    13    1
    15     8    10    1
    16     8    14    1
    17     4     5    1
    18    28    36    1
    19    30    33    1
    20    30    38    1
    21    31    34    1
    22    31    39    1
    23    32    35    1
    24    32    40    1
    25    41    43   ar
    26    15    19    2
    27    42    43   ar
    28    16    22    2
    29    17    12    1
    30    17    19   ar
    31    17    20   ar
    32    18    19   ar
    33    18    22   ar
    34    18    23    1
    35     9    10    1
    36     9    11    1
    37    10    12    1
    38    11     5    1
    39    33    34    1
    40    33    35    1
    41    34    36    1
    42    35    37    1
    43    37    43    1
    44    20    21   ar
    45    21    22   ar
@<TRIPOS>MOLECULE
*****
 43 45 0 0 0
SMALL
GASTEIGER

@<TRIPOS>ATOM
      1 P          22.1192   73.0781   -4.9609 P.3     1  UNL1        0.2189
      2 O          21.2534   74.4323   -5.1493 O.co2   1  UNL1       -0.4371
      3 O          23.5903   73.2902   -4.7546 O.2     1  UNL1       -0.5170
      4 O          21.7120   72.1755   -6.2405 O.3     1  UNL1       -0.3112
      5 C          21.2839   72.8299   -7.4208 C.3     1  UNL1        0.1811
      6 O          19.7754   70.9601   -7.3450 O.3     1  UNL1       -0.3308
      7 O          19.0111   71.7014  -10.1482 O.3     1  UNL1       -0.3794
      8 O          16.9538   72.7241   -8.6795 O.3     1  UNL1       -0.3779
      9 C          19.3504   72.5485   -9.0501 C.3     1  UNL1        0.1713
     10 C          18.2125   72.5943   -8.0524 C.3     1  UNL1        0.1895
     11 C          20.4487   71.8623   -8.2494 C.3     1  UNL1        0.1764
     12 C          18.3722   71.2670   -7.3307 C.3     1  UNL1        0.2383
     13 H          18.3110   72.1188  -10.6747 H       1  UNL1        0.2105
     14 H          16.9015   73.5851   -9.1244 H       1  UNL1        0.2106
     15 O          16.7273   69.3224   -6.1104 O.2     1  UNL1       -0.2464
     16 O          16.7024   71.5955   -2.1009 O.2     1  UNL1       -0.2670
     17 N          17.9210   71.3258   -5.9692 N.ar    1  UNL1       -0.2551
     18 N          16.7157   70.4569   -4.1149 N.ar    1  UNL1       -0.2743
     19 C          17.0973   70.2974   -5.4535 C.ar    1  UNL1        0.3323
     20 C          18.2952   72.3916   -5.1599 C.ar    1  UNL1        0.0869
     21 C          17.9237   72.5299   -3.8857 C.ar    1  UNL1        0.0795
     22 C          17.0619   71.4992   -3.2704 C.ar    1  UNL1        0.2626
     23 H          16.1403   69.7544   -3.7343 H       1  UNL1        0.1734
     24 O          21.3681   72.3345   -3.7379 O.3     1  UNL1       -0.2703
     25 P          21.6359   70.8994   -3.0432 P.3     1  UNL1        0.2208
     26 O          23.2243   70.6744   -3.2594 O.co2   1  UNL1       -0.4371
     27 O          20.7761   69.7887   -3.5733 O.2     1  UNL1       -0.5170
     28 O          21.4752   71.1740   -1.4616 O.3     1  UNL1       -0.2858
     29 O          23.1457   72.6677   -0.6955 O.3     1  UNL1       -0.3226
     30 O          21.2347   71.6651    2.8274 O.3     1  UNL1       -0.3794
     31 O          21.8104   69.6210    0.8213 O.3     1  UNL1       -0.3775
     32 O          20.7603   74.2554    1.5961 O.3     1  UNL1       -0.3792
     33 C          21.3351   71.9218    1.4267 C.3     1  UNL1        0.1718
     34 C          22.3295   70.9456    0.7975 C.3     1  UNL1        0.1968
     35 C          21.8157   73.3631    1.2433 C.3     1  UNL1        0.1723
     36 C          22.6367   71.3342   -0.6493 C.3     1  UNL1        0.2706
     37 C          22.2217   73.6352   -0.2023 C.3     1  UNL1        0.1830
     38 H          20.9309   70.7546    2.9685 H       1  UNL1        0.2105
     39 H          21.6129   69.3679    1.7364 H       1  UNL1        0.2106
     40 H          20.4924   74.0925    2.5140 H       1  UNL1        0.2106
     41 O          24.2445   74.7600    0.1782 O.co2   1  UNL1       -0.5466
     42 O          22.5497   75.9582   -0.7658 O.co2   1  UNL1       -0.5466
     43 C          22.9874   74.9140   -0.3064 C.2     1  UNL1        0.0799
@<TRIPOS>UNITY_ATOM_ATTR
2 1
charge -1
26 1
charge -1
41 1
charge -1
@<TRIPOS>BOND
     1     1     4    1
     2     1    24    1
     3     1     2    1
     4     1     3    2
     5    25    28    1
     6    25    24    1
     7    25    26    1
     8    25    27    2
     9     6    11    1
    10     6    12    1
    11    29    36    1
    12    29    37    1
    13     7     9    1
    14     7    13    1
    15     8    10    1
    16     8    14    1
    17     4     5    1
    18    28    36    1
    19    30    33    1
    20    30    38    1
    21    31    34    1
    22    31    39    1
    23    32    35    1
    24    32    40    1
    25    41    43   ar
    26    15    19    2
    27    42    43   ar
    28    16    22    2
    29    17    12    1
    30    17    19   ar
    31    17    20   ar
    32    18    19   ar
    33    18    22   ar
    34    18    23    1
    35     9    10    1
    36     9    11    1
    37    10    12    1
    38    11     5    1
    39    33    34    1
    40    33    35    1
    41    34    36    1
    42    35    37    1
    43    37    43    1
    44    20    21   ar
    45    21    22   ar
@<TRIPOS>MOLECULE
*****
 43 45 0 0 0
SMALL
GASTEIGER

@<TRIPOS>ATOM
      1 P          22.5451   73.0715   -4.6126 P.3     1  UNL1        0.2189
      2 O          21.7913   74.4892   -4.4103 O.co2   1  UNL1       -0.4371
      3 O          23.9313   73.0039   -4.0420 O.2     1  UNL1       -0.5170
      4 O          22.4249   72.7909   -6.2016 O.3     1  UNL1       -0.3112
      5 C          21.1827   73.0283   -6.8380 C.3     1  UNL1        0.1811
      6 O          19.1249   71.7883   -6.7643 O.3     1  UNL1       -0.3308
      7 O          20.3990   69.9163   -8.7299 O.3     1  UNL1       -0.3794
      8 O          18.7898   71.4419  -10.3170 O.3     1  UNL1       -0.3779
      9 C          20.5266   71.3340   -8.6188 C.3     1  UNL1        0.1713
     10 C          19.2696   72.0142   -9.1183 C.3     1  UNL1        0.1895
     11 C          20.5161   71.6921   -7.1390 C.3     1  UNL1        0.1764
     12 C          18.3173   71.8127   -7.9520 C.3     1  UNL1        0.2383
     13 H          20.4032   69.6633   -9.6667 H       1  UNL1        0.2105
     14 H          19.4310   71.5972  -11.0288 H       1  UNL1        0.2106
     15 O          15.9408   71.6563   -6.4340 O.2     1  UNL1       -0.2464
     16 O          14.6995   75.9399   -7.5976 O.2     1  UNL1       -0.2670
     17 N          17.3552   72.8724   -7.8407 N.ar    1  UNL1       -0.2551
     18 N          15.3243   73.7896   -7.0158 N.ar    1  UNL1       -0.2743
     19 C          16.1941   72.6917   -7.0526 C.ar    1  UNL1        0.3323
     20 C          17.5669   74.0740   -8.5058 C.ar    1  UNL1        0.0869
     21 C          16.7288   75.1115   -8.4611 C.ar    1  UNL1        0.0795
     22 C          15.4915   75.0044   -7.6606 C.ar    1  UNL1        0.2626
     23 H          14.5080   73.6868   -6.4752 H       1  UNL1        0.1734
     24 O          21.5027   72.0123   -3.9767 O.3     1  UNL1       -0.2703
     25 P          21.7437   70.7217   -3.0335 P.3     1  UNL1        0.2208
     26 O          23.3322   70.4474   -3.1807 O.co2   1  UNL1       -0.4371
     27 O          20.8786   69.5420   -3.3711 O.2     1  UNL1       -0.5170
     28 O          21.5637   71.2750   -1.5289 O.3     1  UNL1       -0.2858
     29 O          23.2675   72.6783   -0.6703 O.3     1  UNL1       -0.3226
     30 O          21.1738   71.7055    2.7557 O.3     1  UNL1       -0.3794
     31 O          21.7372   69.6708    0.7366 O.3     1  UNL1       -0.3775
     32 O          20.8657   74.3347    1.5545 O.3     1  UNL1       -0.3792
     33 C          21.3417   71.9805    1.3650 C.3     1  UNL1        0.1718
     34 C          22.3157   70.9706    0.7576 C.3     1  UNL1        0.1968
     35 C          21.8933   73.4013    1.2271 C.3     1  UNL1        0.1723
     36 C          22.6978   71.3688   -0.6687 C.3     1  UNL1        0.2706
     37 C          22.3687   73.6785   -0.1962 C.3     1  UNL1        0.1830
     38 H          20.8241   70.8075    2.8681 H       1  UNL1        0.2105
     39 H          21.4921   69.4118    1.6384 H       1  UNL1        0.2106
     40 H          20.5541   74.1690    2.4580 H       1  UNL1        0.2106
     41 O          22.4084   76.0233   -0.1480 O.co2   1  UNL1       -0.5466
     42 O          24.4108   74.9533   -0.3587 O.co2   1  UNL1       -0.5466
     43 C          23.1945   74.9227   -0.2466 C.2     1  UNL1        0.0799
@<TRIPOS>UNITY_ATOM_ATTR
2 1
charge -1
26 1
charge -1
41 1
charge -1
@<TRIPOS>BOND
     1     1     4    1
     2     1    24    1
     3     1     2    1
     4     1     3    2
     5    25    28    1
     6    25    24    1
     7    25    26    1
     8    25    27    2
     9     6    11    1
    10     6    12    1
    11    29    36    1
    12    29    37    1
    13     7     9    1
    14     7    13    1
    15     8    10    1
    16     8    14    1
    17     4     5    1
    18    28    36    1
    19    30    33    1
    20    30    38    1
    21    31    34    1
    22    31    39    1
    23    32    35    1
    24    32    40    1
    25    41    43   ar
    26    15    19    2
    27    42    43   ar
    28    16    22    2
    29    17    12    1
    30    17    19   ar
    31    17    20   ar
    32    18    19   ar
    33    18    22   ar
    34    18    23    1
    35     9    10    1
    36     9    11    1
    37    10    12    1
    38    11     5    1
    39    33    34    1
    40    33    35    1
    41    34    36    1
    42    35    37    1
    43    37    43    1
    44    20    21   ar
    45    21    22   ar
@<TRIPOS>MOLECULE
*****
 43 45 0 0 0
SMALL
GASTEIGER

@<TRIPOS>ATOM
      1 P          18.9898   73.7754   -2.9496 P.3     1  UNL1        0.2189
      2 O          19.2977   74.5256   -4.3500 O.co2   1  UNL1       -0.4371
      3 O          18.0454   74.5008   -2.0365 O.2     1  UNL1       -0.5170
      4 O          20.4578   73.4687   -2.3422 O.3     1  UNL1       -0.3112
      5 C          21.5935   73.9118   -3.0623 C.3     1  UNL1        0.1811
      6 O          23.1714   73.0818   -1.4502 O.3     1  UNL1       -0.3308
      7 O          23.5225   70.7322   -3.2798 O.3     1  UNL1       -0.3794
      8 O          21.8622   69.7455   -1.3547 O.3     1  UNL1       -0.3779
      9 C          22.3429   71.4817   -2.9877 C.3     1  UNL1        0.1713
     10 C          21.8303   71.1348   -1.6060 C.3     1  UNL1        0.1895
     11 C          22.7429   72.9414   -2.8220 C.3     1  UNL1        0.1764
     12 C          22.7812   71.9127   -0.7124 C.3     1  UNL1        0.2383
     13 H          23.2921   69.7960   -3.3900 H       1  UNL1        0.2105
     14 H          21.2401   69.2952   -1.9482 H       1  UNL1        0.2106
     15 O          22.4765   70.2473    1.5482 O.2     1  UNL1       -0.2464
     16 O          20.4041   73.5865    3.9562 O.2     1  UNL1       -0.2670
     17 N          22.1656   72.3214    0.5185 N.ar    1  UNL1       -0.2551
     18 N          21.4437   71.9117    2.7450 N.ar    1  UNL1       -0.2743
     19 C          22.0623   71.4072    1.5935 C.ar    1  UNL1        0.3323
     20 C          21.6741   73.6142    0.6524 C.ar    1  UNL1        0.0869
     21 C          21.0870   74.0806    1.7563 C.ar    1  UNL1        0.0795
     22 C          20.9386   73.1892    2.9254 C.ar    1  UNL1        0.2626
     23 H          21.3584   71.2931    3.5061 H       1  UNL1        0.1734
     24 O          18.4807   72.3164   -3.4237 O.3     1  UNL1       -0.2703
     25 P          17.2710   71.8812   -4.4040 P.3     1  UNL1        0.2208
     26 O          16.5273   73.2840   -4.7191 O.co2   1  UNL1       -0.4371
     27 O          16.3732   70.8184   -3.8398 O.2     1  UNL1       -0.5170
     28 O          17.9917   71.4819   -5.7910 O.3     1  UNL1       -0.2858
     29 O          19.3855   72.9636   -7.0037 O.3     1  UNL1       -0.3226
     30 O          18.2338   70.2981   -9.9425 O.3     1  UNL1       -0.3794
     31 O          16.2960   71.2733   -7.9858 O.3     1  UNL1       -0.3775
     32 O          20.9060   70.1533   -8.8071 O.3     1  UNL1       -0.3792
     33 C          18.5702   70.7129   -8.6186 C.3     1  UNL1        0.1718
     34 C          17.6033   71.8064   -8.1637 C.3     1  UNL1        0.1968
     35 C          20.0045   71.2459   -8.6401 C.3     1  UNL1        0.1723
     36 C          18.0678   72.4352   -6.8493 C.3     1  UNL1        0.2706
     37 C          20.3497   71.9689   -7.3413 C.3     1  UNL1        0.1830
     38 H          17.3261   69.9555   -9.9534 H       1  UNL1        0.2105
     39 H          15.9951   70.8724   -8.8159 H       1  UNL1        0.2106
     40 H          20.6970   69.6846   -9.6302 H       1  UNL1        0.2106
     41 O          21.5951   73.4634   -8.6516 O.co2   1  UNL1       -0.5466
     42 O          22.5270   72.7768   -6.6871 O.co2   1  UNL1       -0.5466
     43 C          21.6084   72.7594   -7.4927 C.2     1  UNL1        0.0799
@<TRIPOS>UNITY_ATOM_ATTR
2 1
charge -1
26 1
charge -1
41 1
charge -1
@<TRIPOS>BOND
     1     1     4    1
     2     1    24    1
     3     1     2    1
     4     1     3    2
     5    25    28    1
     6    25    24    1
     7    25    26    1
     8    25    27    2
     9     6    11    1
    10     6    12    1
    11    29    36    1
    12    29    37    1
    13     7     9    1
    14     7    13    1
    15     8    10    1
    16     8    14    1
    17     4     5    1
    18    28    36    1
    19    30    33    1
    20    30    38    1
    21    31    34    1
    22    31    39    1
    23    32    35    1
    24    32    40    1
    25    41    43   ar
    26    15    19    2
    27    42    43   ar
    28    16    22    2
    29    17    12    1
    30    17    19   ar
    31    17    20   ar
    32    18    19   ar
    33    18    22   ar
    34    18    23    1
    35     9    10    1
    36     9    11    1
    37    10    12    1
    38    11     5    1
    39    33    34    1
    40    33    35    1
    41    34    36    1
    42    35    37    1
    43    37    43    1
    44    20    21   ar
    45    21    22   ar
