@<TRIPOS>MOLECULE
GDU
 43 45 0 0 0
SMALL
GASTEIGER

@<TRIPOS>ATOM
      1 P          20.9657   71.6879   -2.0805 P.3     1  UNL1        0.2189
      2 O          22.2715   71.0965   -2.4475 O.2     1  UNL1       -0.5170
      3 O          21.0937   73.2927   -2.0479 O.3     1  UNL1       -0.4371
      4 O          19.8583   71.2597   -3.1654 O.3     1  UNL1       -0.3112
      5 C          18.7211   70.7967   -2.4353 C.3     1  UNL1        0.1811
      6 C          17.0855   70.4550   -5.6189 C.3     1  UNL1        0.2383
      7 C          17.0915   69.0216   -5.0287 C.3     1  UNL1        0.1895
      8 O          15.9523   68.2820   -5.4741 O.3     1  UNL1       -0.3779
      9 C          17.0104   69.2974   -3.5047 C.3     1  UNL1        0.1713
     10 C          17.5037   70.7491   -3.3603 C.3     1  UNL1        0.1764
     11 O          17.8685   71.2125   -4.6720 O.3     1  UNL1       -0.3308
     12 O          15.6632   69.1717   -3.0451 O.3     1  UNL1       -0.3794
     13 H          16.0159   67.4037   -5.0735 H       1  UNL1        0.2106
     14 H          15.3929   68.2594   -3.2162 H       1  UNL1        0.2105
     15 N          17.7148   70.4736   -6.9404 N.ar    1  UNL1       -0.2551
     16 C          16.9483   70.5423   -8.0431 C.ar    1  UNL1        0.3323
     17 N          17.5019   70.5644   -9.2699 N.ar    1  UNL1       -0.2743
     18 C          18.8400   70.5077   -9.4131 C.ar    1  UNL1        0.2626
     19 C          19.6597   70.4292   -8.2607 C.ar    1  UNL1        0.0795
     20 C          19.0787   70.4129   -7.0422 C.ar    1  UNL1        0.0869
     21 O          15.7398   70.5946   -7.9297 O.2     1  UNL1       -0.2464
     22 O          19.3418   70.5228  -10.5233 O.2     1  UNL1       -0.2670
     23 H          16.9336   70.6186  -10.0547 H       1  UNL1        0.1734
     24 O          20.5270   71.1563   -0.6253 O.3     1  UNL1       -0.2703
     25 P          21.8554   71.1327    0.2829 P.3     1  UNL1        0.2208
     26 O          21.7306   70.0766    1.3116 O.2     1  UNL1       -0.5170
     27 O          23.1351   70.8275   -0.6463 O.3     1  UNL1       -0.4371
     28 O          22.0425   72.5616    0.9992 O.3     1  UNL1       -0.2858
     29 C          22.6495   72.3134    2.2680 C.3     1  UNL1        0.2704
     30 C          21.7515   72.8620    3.3780 C.3     1  UNL1        0.1967
     31 C          21.5501   74.3647    3.1595 C.3     1  UNL1        0.1715
     32 C          22.9253   75.0317    3.0436 C.3     1  UNL1        0.1694
     33 C          23.7341   74.3193    1.9567 C.3     1  UNL1        0.1761
     34 O          20.4870   72.1979    3.3427 O.3     1  UNL1       -0.3775
     35 O          20.8365   74.9194    4.2666 O.3     1  UNL1       -0.3794
     36 O          23.6091   74.9372    4.2940 O.3     1  UNL1       -0.3794
     37 O          23.9235   72.9515    2.3163 O.3     1  UNL1       -0.3258
     38 H          20.6624   71.2566    3.4770 H       1  UNL1        0.2106
     39 H          19.9863   74.4637    4.3082 H       1  UNL1        0.2105
     40 H          23.0623   75.3928    4.9472 H       1  UNL1        0.2105
     41 C          25.0969   74.9995    1.8090 C.3     1  UNL1        0.1693
     42 O          26.0464   74.3510    2.6569 O.3     1  UNL1       -0.3794
     43 H          26.8897   74.8082    2.5338 H       1  UNL1        0.2105
@<TRIPOS>BOND
     1    15    16   ar
     2    15    20   ar
     3    15     6    1
     4    16    17   ar
     5    16    21    2
     6    17    18   ar
     7    17    23    1
     8    18    19   ar
     9    18    22    2
    10    19    20   ar
    11     6     7    1
    12     6    11    1
    13     7     8    1
    14     7     9    1
    15     8    13    1
    16     9    10    1
    17     9    12    1
    18    10    11    1
    19    10     5    1
    20    12    14    1
    21     5     4    1
    22     4     1    1
    23     1     2    2
    24     1     3    1
    25     1    24    1
    26    24    25    1
    27    25    26    2
    28    25    27    1
    29    25    28    1
    30    28    29    1
    31    29    30    1
    32    29    37    1
    33    30    31    1
    34    30    34    1
    35    31    32    1
    36    31    35    1
    37    32    33    1
    38    32    36    1
    39    33    41    1
    40    33    37    1
    41    41    42    1
    42    34    38    1
    43    35    39    1
    44    36    40    1
    45    42    43    1
@<TRIPOS>MOLECULE
GDU
 43 45 0 0 0
SMALL
GASTEIGER

@<TRIPOS>ATOM
      1 P          20.5644   71.2412   -3.0291 P.3     1  UNL1        0.2189
      2 O          20.7877   71.7575   -4.3978 O.2     1  UNL1       -0.5170
      3 O          20.2591   72.4707   -2.0351 O.3     1  UNL1       -0.4371
      4 O          19.3127   70.2313   -3.0336 O.3     1  UNL1       -0.3112
      5 C          18.1895   70.9622   -2.5390 C.3     1  UNL1        0.1811
      6 C          16.7724   70.5314   -5.8152 C.3     1  UNL1        0.2383
      7 C          16.7826   69.1064   -5.2052 C.3     1  UNL1        0.1895
      8 O          15.6966   68.3270   -5.7118 O.3     1  UNL1       -0.3779
      9 C          16.5958   69.3986   -3.6936 C.3     1  UNL1        0.1713
     10 C          17.0359   70.8663   -3.5391 C.3     1  UNL1        0.1764
     11 O          17.4703   71.3240   -4.8313 O.3     1  UNL1       -0.3308
     12 O          15.2262   69.2379   -3.3192 O.3     1  UNL1       -0.3794
     13 H          15.7603   67.4562   -5.2953 H       1  UNL1        0.2106
     14 H          14.9944   68.3157   -3.4940 H       1  UNL1        0.2105
     15 N          17.4844   70.5526   -7.0940 N.ar    1  UNL1       -0.2551
     16 C          16.7896   70.5162   -8.2448 C.ar    1  UNL1        0.3323
     17 N          17.4198   70.5381   -9.4340 N.ar    1  UNL1       -0.2743
     18 C          18.7647   70.5871   -9.4901 C.ar    1  UNL1        0.2626
     19 C          19.5098   70.6201   -8.2860 C.ar    1  UNL1        0.0795
     20 C          18.8524   70.6014   -7.1070 C.ar    1  UNL1        0.0869
     21 O          15.5760   70.4723   -8.2101 O.2     1  UNL1       -0.2464
     22 O          19.3362   70.6022  -10.5660 O.2     1  UNL1       -0.2670
     23 H          16.9023   70.5156  -10.2547 H       1  UNL1        0.1734
     24 O          21.8820   70.4628   -2.5287 O.3     1  UNL1       -0.2703
     25 P          23.0246   71.5741   -2.3067 P.3     1  UNL1        0.2208
     26 O          24.3447   70.9986   -2.6459 O.2     1  UNL1       -0.5170
     27 O          22.7321   72.8414   -3.2568 O.3     1  UNL1       -0.4371
     28 O          23.0233   72.0468   -0.7683 O.3     1  UNL1       -0.2858
     29 C          23.1103   70.8651    0.0290 C.3     1  UNL1        0.2704
     30 C          21.9284   70.8169    0.9986 C.3     1  UNL1        0.1967
     31 C          21.9565   72.0683    1.8815 C.3     1  UNL1        0.1715
     32 C          23.3367   72.1724    2.5402 C.3     1  UNL1        0.1694
     33 C          24.4125   72.1197    1.4525 C.3     1  UNL1        0.1761
     34 O          20.7055   70.7772    0.2609 O.3     1  UNL1       -0.3775
     35 O          20.9476   71.9680    2.8887 O.3     1  UNL1       -0.3794
     36 O          23.5157   71.0852    3.4490 O.3     1  UNL1       -0.3794
     37 O          24.3350   70.8753    0.7587 O.3     1  UNL1       -0.3258
     38 H          20.7345   69.9794   -0.2846 H       1  UNL1        0.2106
     39 H          20.1011   71.8928    2.4304 H       1  UNL1        0.2105
     40 H          22.8151   71.1553    4.1106 H       1  UNL1        0.2105
     41 C          25.7938   72.2574    2.0968 C.3     1  UNL1        0.1693
     42 O          26.2780   70.9645    2.4644 O.3     1  UNL1       -0.3794
     43 H          27.1485   71.0952    2.8650 H       1  UNL1        0.2105
@<TRIPOS>BOND
     1    15    16   ar
     2    15    20   ar
     3    15     6    1
     4    16    17   ar
     5    16    21    2
     6    17    18   ar
     7    17    23    1
     8    18    19   ar
     9    18    22    2
    10    19    20   ar
    11     6     7    1
    12     6    11    1
    13     7     8    1
    14     7     9    1
    15     8    13    1
    16     9    10    1
    17     9    12    1
    18    10    11    1
    19    10     5    1
    20    12    14    1
    21     5     4    1
    22     4     1    1
    23     1     2    2
    24     1     3    1
    25     1    24    1
    26    24    25    1
    27    25    26    2
    28    25    27    1
    29    25    28    1
    30    28    29    1
    31    29    30    1
    32    29    37    1
    33    30    31    1
    34    30    34    1
    35    31    32    1
    36    31    35    1
    37    32    33    1
    38    32    36    1
    39    33    41    1
    40    33    37    1
    41    41    42    1
    42    34    38    1
    43    35    39    1
    44    36    40    1
    45    42    43    1
@<TRIPOS>MOLECULE
GDU
 43 45 0 0 0
SMALL
GASTEIGER

@<TRIPOS>ATOM
      1 P          20.7385   71.2441   -3.0603 P.3     1  UNL1        0.2189
      2 O          21.2307   71.0633   -4.4440 O.2     1  UNL1       -0.5170
      3 O          20.3527   72.7898   -2.8258 O.3     1  UNL1       -0.4371
      4 O          19.4388   70.3255   -2.8283 O.3     1  UNL1       -0.3112
      5 C          18.3594   71.2072   -2.5154 C.3     1  UNL1        0.1811
      6 C          16.9153   70.5074   -5.7329 C.3     1  UNL1        0.2383
      7 C          17.0855   69.1157   -5.0717 C.3     1  UNL1        0.1895
      8 O          16.0728   68.2114   -5.5190 O.3     1  UNL1       -0.3779
      9 C          16.9062   69.4466   -3.5672 C.3     1  UNL1        0.1713
     10 C          17.1979   70.9561   -3.4787 C.3     1  UNL1        0.1764
     11 O          17.5522   71.4044   -4.7985 O.3     1  UNL1       -0.3308
     12 O          15.5695   69.1632   -3.1491 O.3     1  UNL1       -0.3794
     13 H          16.2349   67.3684   -5.0729 H       1  UNL1        0.2106
     14 H          15.4289   68.2161   -3.2836 H       1  UNL1        0.2105
     15 N          17.5905   70.5502   -7.0310 N.ar    1  UNL1       -0.2551
     16 C          16.8644   70.5075   -8.1621 C.ar    1  UNL1        0.3323
     17 N          17.4603   70.5489   -9.3683 N.ar    1  UNL1       -0.2743
     18 C          18.8019   70.6243   -9.4617 C.ar    1  UNL1        0.2626
     19 C          19.5799   70.6643   -8.2788 C.ar    1  UNL1        0.0795
     20 C          18.9564   70.6256   -7.0820 C.ar    1  UNL1        0.0869
     21 O          15.6533   70.4399   -8.0937 O.2     1  UNL1       -0.2464
     22 O          19.3425   70.6571  -10.5531 O.2     1  UNL1       -0.2670
     23 H          16.9205   70.5214  -10.1743 H       1  UNL1        0.1734
     24 O          21.8918   70.8167   -2.0213 O.3     1  UNL1       -0.2703
     25 P          23.1859   71.7084   -2.3679 P.3     1  UNL1        0.2208
     26 O          24.1892   70.8722   -3.0630 O.2     1  UNL1       -0.5170
     27 O          22.7543   72.9321   -3.3220 O.3     1  UNL1       -0.4371
     28 O          23.8195   72.2885   -1.0069 O.3     1  UNL1       -0.2858
     29 C          22.9717   73.3538   -0.5756 C.3     1  UNL1        0.2704
     30 C          23.8301   74.5330   -0.1151 C.3     1  UNL1        0.1967
     31 C          24.7411   74.0708    1.0263 C.3     1  UNL1        0.1715
     32 C          23.8744   73.4301    2.1162 C.3     1  UNL1        0.1694
     33 C          23.0135   72.3323    1.4862 C.3     1  UNL1        0.1761
     34 O          24.6261   75.0002   -1.2057 O.3     1  UNL1       -0.3775
     35 O          25.4425   75.1933    1.5653 O.3     1  UNL1       -0.3794
     36 O          23.0344   74.4241    2.7047 O.3     1  UNL1       -0.3794
     37 O          22.1531   72.9016    0.5005 O.3     1  UNL1       -0.3258
     38 H          24.0130   75.2732   -1.9017 H       1  UNL1        0.2106
     39 H          25.9629   75.5705    0.8448 H       1  UNL1        0.2105
     40 H          23.6175   75.0954    3.0824 H       1  UNL1        0.2105
     41 C          22.1689   71.6626    2.5725 C.3     1  UNL1        0.1693
     42 O          20.8851   72.2869    2.6292 O.3     1  UNL1       -0.3794
     43 H          20.3852   71.8364    3.3237 H       1  UNL1        0.2105
@<TRIPOS>BOND
     1    15    16   ar
     2    15    20   ar
     3    15     6    1
     4    16    17   ar
     5    16    21    2
     6    17    18   ar
     7    17    23    1
     8    18    19   ar
     9    18    22    2
    10    19    20   ar
    11     6     7    1
    12     6    11    1
    13     7     8    1
    14     7     9    1
    15     8    13    1
    16     9    10    1
    17     9    12    1
    18    10    11    1
    19    10     5    1
    20    12    14    1
    21     5     4    1
    22     4     1    1
    23     1     2    2
    24     1     3    1
    25     1    24    1
    26    24    25    1
    27    25    26    2
    28    25    27    1
    29    25    28    1
    30    28    29    1
    31    29    30    1
    32    29    37    1
    33    30    31    1
    34    30    34    1
    35    31    32    1
    36    31    35    1
    37    32    33    1
    38    32    36    1
    39    33    41    1
    40    33    37    1
    41    41    42    1
    42    34    38    1
    43    35    39    1
    44    36    40    1
    45    42    43    1
@<TRIPOS>MOLECULE
GDU
 43 45 0 0 0
SMALL
GASTEIGER

@<TRIPOS>ATOM
      1 P          20.7697   72.0742   -1.7323 P.3     1  UNL1        0.2189
      2 O          20.4196   72.4000   -0.3320 O.2     1  UNL1       -0.5170
      3 O          21.3888   70.5892   -1.7990 O.3     1  UNL1       -0.4371
      4 O          19.4487   72.1464   -2.6469 O.3     1  UNL1       -0.3112
      5 C          18.7774   70.8936   -2.5039 C.3     1  UNL1        0.1811
      6 C          17.0526   70.5821   -5.6432 C.3     1  UNL1        0.2383
      7 C          17.0379   69.1511   -5.0475 C.3     1  UNL1        0.1895
      8 O          15.8696   68.4387   -5.4607 O.3     1  UNL1       -0.3779
      9 C          17.0030   69.4341   -3.5231 C.3     1  UNL1        0.1713
     10 C          17.5358   70.8735   -3.3973 C.3     1  UNL1        0.1764
     11 O          17.8783   71.3230   -4.7198 O.3     1  UNL1       -0.3308
     12 O          15.6653   69.3437   -3.0287 O.3     1  UNL1       -0.3794
     13 H          15.9216   67.5605   -5.0582 H       1  UNL1        0.2106
     14 H          15.3680   68.4379   -3.1891 H       1  UNL1        0.2105
     15 N          17.6480   70.5804   -6.9805 N.ar    1  UNL1       -0.2551
     16 C          16.8576   70.4648   -8.0622 C.ar    1  UNL1        0.3323
     17 N          17.3794   70.4641   -9.3030 N.ar    1  UNL1       -0.2743
     18 C          18.7104   70.5698   -9.4810 C.ar    1  UNL1        0.2626
     19 C          19.5557   70.6864   -8.3505 C.ar    1  UNL1        0.0795
     20 C          19.0058   70.6887   -7.1176 C.ar    1  UNL1        0.0869
     21 O          15.6551   70.3692   -7.9175 O.2     1  UNL1       -0.2464
     22 O          19.1840   70.5644  -10.6036 O.2     1  UNL1       -0.2670
     23 H          16.7937   70.3841  -10.0726 H       1  UNL1        0.1734
     24 O          21.8567   73.1320   -2.2727 O.3     1  UNL1       -0.2703
     25 P          22.5047   72.4972   -3.6020 P.3     1  UNL1        0.2208
     26 O          23.8530   71.9731   -3.2914 O.2     1  UNL1       -0.5170
     27 O          21.5719   71.2962   -4.1327 O.3     1  UNL1       -0.4371
     28 O          22.6172   73.6303   -4.7393 O.3     1  UNL1       -0.2858
     29 C          21.5687   73.3828   -5.6769 C.3     1  UNL1        0.2704
     30 C          22.1366   73.4171   -7.0966 C.3     1  UNL1        0.1967
     31 C          22.7728   74.7880   -7.3461 C.3     1  UNL1        0.1715
     32 C          21.7372   75.8735   -7.0315 C.3     1  UNL1        0.1694
     33 C          21.2007   75.6538   -5.6148 C.3     1  UNL1        0.1761
     34 O          23.1249   72.3956   -7.2416 O.3     1  UNL1       -0.3775
     35 O          23.1766   74.8883   -8.7134 O.3     1  UNL1       -0.3794
     36 O          20.6643   75.7970   -7.9711 O.3     1  UNL1       -0.3794
     37 O          20.5608   74.3810   -5.5344 O.3     1  UNL1       -0.3258
     38 H          22.6828   71.5532   -7.0691 H       1  UNL1        0.2106
     39 H          23.8162   74.1819   -8.8688 H       1  UNL1        0.2105
     40 H          21.0486   75.9349   -8.8466 H       1  UNL1        0.2105
     41 C          20.1906   76.7529   -5.2777 C.3     1  UNL1        0.1693
     42 O          19.8844   76.7058   -3.8830 O.3     1  UNL1       -0.3794
     43 H          19.2471   77.4129   -3.7124 H       1  UNL1        0.2105
@<TRIPOS>BOND
     1    15    16   ar
     2    15    20   ar
     3    15     6    1
     4    16    17   ar
     5    16    21    2
     6    17    18   ar
     7    17    23    1
     8    18    19   ar
     9    18    22    2
    10    19    20   ar
    11     6     7    1
    12     6    11    1
    13     7     8    1
    14     7     9    1
    15     8    13    1
    16     9    10    1
    17     9    12    1
    18    10    11    1
    19    10     5    1
    20    12    14    1
    21     5     4    1
    22     4     1    1
    23     1     2    2
    24     1     3    1
    25     1    24    1
    26    24    25    1
    27    25    26    2
    28    25    27    1
    29    25    28    1
    30    28    29    1
    31    29    30    1
    32    29    37    1
    33    30    31    1
    34    30    34    1
    35    31    32    1
    36    31    35    1
    37    32    33    1
    38    32    36    1
    39    33    41    1
    40    33    37    1
    41    41    42    1
    42    34    38    1
    43    35    39    1
    44    36    40    1
    45    42    43    1
@<TRIPOS>MOLECULE
GDU
 43 45 0 0 0
SMALL
GASTEIGER

@<TRIPOS>ATOM
      1 P          20.7795   72.0167   -2.3793 P.3     1  UNL1        0.2189
      2 O          21.5110   70.7943   -2.7796 O.2     1  UNL1       -0.5170
      3 O          20.6497   73.0031   -3.6455 O.3     1  UNL1       -0.4371
      4 O          19.3114   71.6173   -1.8575 O.3     1  UNL1       -0.3112
      5 C          18.9670   70.3857   -2.4938 C.3     1  UNL1        0.1811
      6 C          17.1808   70.5083   -5.6118 C.3     1  UNL1        0.2383
      7 C          16.9809   69.0569   -5.1057 C.3     1  UNL1        0.1895
      8 O          15.7229   68.5344   -5.5391 O.3     1  UNL1       -0.3779
      9 C          17.0013   69.2439   -3.5663 C.3     1  UNL1        0.1713
     10 C          17.7240   70.5883   -3.3622 C.3     1  UNL1        0.1764
     11 O          18.1089   71.0719   -4.6607 O.3     1  UNL1       -0.3308
     12 O          15.6692   69.3012   -3.0523 O.3     1  UNL1       -0.3794
     13 H          15.6610   67.6332   -5.1929 H       1  UNL1        0.2106
     14 H          15.2512   68.4551   -3.2625 H       1  UNL1        0.2105
     15 N          17.7556   70.5129   -6.9581 N.ar    1  UNL1       -0.2551
     16 C          16.9445   70.4662   -8.0297 C.ar    1  UNL1        0.3323
     17 N          17.4473   70.4728   -9.2783 N.ar    1  UNL1       -0.2743
     18 C          18.7791   70.5165   -9.4749 C.ar    1  UNL1        0.2626
     19 C          19.6458   70.5602   -8.3554 C.ar    1  UNL1        0.0795
     20 C          19.1150   70.5568   -7.1142 C.ar    1  UNL1        0.0869
     21 O          15.7410   70.4269   -7.8681 O.2     1  UNL1       -0.2464
     22 O          19.2353   70.5177  -10.6046 O.2     1  UNL1       -0.2670
     23 H          16.8470   70.4430  -10.0402 H       1  UNL1        0.1734
     24 O          21.5851   72.7614   -1.2009 O.3     1  UNL1       -0.2703
     25 P          20.9708   72.2341    0.1900 P.3     1  UNL1        0.2208
     26 O          19.6484   72.8590    0.4133 O.2     1  UNL1       -0.5170
     27 O          20.8040   70.6332    0.1299 O.3     1  UNL1       -0.4371
     28 O          21.9607   72.6243    1.3974 O.3     1  UNL1       -0.2858
     29 C          23.1328   73.1880    0.8073 C.3     1  UNL1        0.2704
     30 C          24.2595   72.1539    0.8253 C.3     1  UNL1        0.1967
     31 C          24.5305   71.7368    2.2741 C.3     1  UNL1        0.1715
     32 C          24.7888   72.9975    3.1068 C.3     1  UNL1        0.1694
     33 C          23.6200   73.9675    2.9172 C.3     1  UNL1        0.1761
     34 O          23.8722   71.0107    0.0609 O.3     1  UNL1       -0.3775
     35 O          25.6761   70.8838    2.3219 O.3     1  UNL1       -0.3794
     36 O          26.0027   73.6144    2.6758 O.3     1  UNL1       -0.3794
     37 O          23.5247   74.3439    1.5442 O.3     1  UNL1       -0.3258
     38 H          23.7052   71.3207   -0.8396 H       1  UNL1        0.2106
     39 H          25.4739   70.1128    1.7770 H       1  UNL1        0.2105
     40 H          26.7078   72.9673    2.8077 H       1  UNL1        0.2105
     41 C          23.8516   75.2158    3.7717 C.3     1  UNL1        0.1693
     42 O          23.0761   75.1238    4.9679 O.3     1  UNL1       -0.3794
     43 H          23.2507   75.9272    5.4772 H       1  UNL1        0.2105
@<TRIPOS>BOND
     1    15    16   ar
     2    15    20   ar
     3    15     6    1
     4    16    17   ar
     5    16    21    2
     6    17    18   ar
     7    17    23    1
     8    18    19   ar
     9    18    22    2
    10    19    20   ar
    11     6     7    1
    12     6    11    1
    13     7     8    1
    14     7     9    1
    15     8    13    1
    16     9    10    1
    17     9    12    1
    18    10    11    1
    19    10     5    1
    20    12    14    1
    21     5     4    1
    22     4     1    1
    23     1     2    2
    24     1     3    1
    25     1    24    1
    26    24    25    1
    27    25    26    2
    28    25    27    1
    29    25    28    1
    30    28    29    1
    31    29    30    1
    32    29    37    1
    33    30    31    1
    34    30    34    1
    35    31    32    1
    36    31    35    1
    37    32    33    1
    38    32    36    1
    39    33    41    1
    40    33    37    1
    41    41    42    1
    42    34    38    1
    43    35    39    1
    44    36    40    1
    45    42    43    1
@<TRIPOS>MOLECULE
GDU
 43 45 0 0 0
SMALL
GASTEIGER

@<TRIPOS>ATOM
      1 P          22.9198   72.5272   -3.3237 P.3     1  UNL1        0.2189
      2 O          24.2172   72.2730   -3.9882 O.2     1  UNL1       -0.5170
      3 O          23.0366   73.8443   -2.4047 O.3     1  UNL1       -0.4371
      4 O          21.7805   72.7489   -4.4371 O.3     1  UNL1       -0.3112
      5 C          22.3575   72.3964   -5.6954 C.3     1  UNL1        0.1811
      6 C          19.2610   70.6353   -6.1825 C.3     1  UNL1        0.2383
      7 C          19.0554   71.9910   -6.9055 C.3     1  UNL1        0.1895
      8 O          18.1719   71.8458   -8.0197 O.3     1  UNL1       -0.3779
      9 C          20.4931   72.3275   -7.3798 C.3     1  UNL1        0.1713
     10 C          21.3972   71.4846   -6.4612 C.3     1  UNL1        0.1764
     11 O          20.5429   70.7886   -5.5370 O.3     1  UNL1       -0.3308
     12 O          20.6688   71.9519   -8.7473 O.3     1  UNL1       -0.3794
     13 H          18.0864   72.7207   -8.4236 H       1  UNL1        0.2106
     14 H          20.0362   72.4696   -9.2634 H       1  UNL1        0.2105
     15 N          18.2076   70.4122   -5.1907 N.ar    1  UNL1       -0.2551
     16 C          17.0922   69.7476   -5.5407 C.ar    1  UNL1        0.3323
     17 N          16.1102   69.5261   -4.6471 N.ar    1  UNL1       -0.2743
     18 C          16.2260   69.9780   -3.3835 C.ar    1  UNL1        0.2626
     19 C          17.3928   70.6846   -3.0022 C.ar    1  UNL1        0.0795
     20 C          18.3642   70.8892   -3.9171 C.ar    1  UNL1        0.0869
     21 O          16.9737   69.3335   -6.6767 O.2     1  UNL1       -0.2464
     22 O          15.3355   69.7821   -2.5753 O.2     1  UNL1       -0.2670
     23 H          15.3139   69.0408   -4.9158 H       1  UNL1        0.1734
     24 O          22.5333   71.2644   -2.4025 O.3     1  UNL1       -0.2703
     25 P          21.3612   71.7503   -1.4125 P.3     1  UNL1        0.2208
     26 O          20.5771   72.8219   -2.0653 O.2     1  UNL1       -0.5170
     27 O          20.3938   70.5074   -1.0758 O.3     1  UNL1       -0.4371
     28 O          22.0069   72.3109   -0.0491 O.3     1  UNL1       -0.2858
     29 C          21.3393   71.6519    1.0278 C.3     1  UNL1        0.2704
     30 C          20.7430   72.6965    1.9726 C.3     1  UNL1        0.1967
     31 C          21.8684   73.5914    2.5006 C.3     1  UNL1        0.1715
     32 C          22.9551   72.7015    3.1145 C.3     1  UNL1        0.1694
     33 C          23.3853   71.6571    2.0815 C.3     1  UNL1        0.1761
     34 O          19.7888   73.4913    1.2663 O.3     1  UNL1       -0.3775
     35 O          21.3508   74.4769    3.4958 O.3     1  UNL1       -0.3794
     36 O          22.4387   72.0484    4.2749 O.3     1  UNL1       -0.3794
     37 O          22.2711   70.8362    1.7341 O.3     1  UNL1       -0.3258
     38 H          19.1046   72.8875    0.9466 H       1  UNL1        0.2106
     39 H          20.6650   75.0066    3.0698 H       1  UNL1        0.2105
     40 H          22.1759   72.7426    4.8932 H       1  UNL1        0.2105
     41 C          24.4949   70.7845    2.6727 C.3     1  UNL1        0.1693
     42 O          25.6361   70.8198    1.8139 O.3     1  UNL1       -0.3794
     43 H          26.3107   70.2596    2.2217 H       1  UNL1        0.2105
@<TRIPOS>BOND
     1    15    16   ar
     2    15    20   ar
     3    15     6    1
     4    16    17   ar
     5    16    21    2
     6    17    18   ar
     7    17    23    1
     8    18    19   ar
     9    18    22    2
    10    19    20   ar
    11     6     7    1
    12     6    11    1
    13     7     8    1
    14     7     9    1
    15     8    13    1
    16     9    10    1
    17     9    12    1
    18    10    11    1
    19    10     5    1
    20    12    14    1
    21     5     4    1
    22     4     1    1
    23     1     2    2
    24     1     3    1
    25     1    24    1
    26    24    25    1
    27    25    26    2
    28    25    27    1
    29    25    28    1
    30    28    29    1
    31    29    30    1
    32    29    37    1
    33    30    31    1
    34    30    34    1
    35    31    32    1
    36    31    35    1
    37    32    33    1
    38    32    36    1
    39    33    41    1
    40    33    37    1
    41    41    42    1
    42    34    38    1
    43    35    39    1
    44    36    40    1
    45    42    43    1
@<TRIPOS>MOLECULE
GDU
 43 45 0 0 0
SMALL
GASTEIGER

@<TRIPOS>ATOM
      1 P          21.6316   72.5818   -6.4245 P.3     1  UNL1        0.2189
      2 O          21.5188   73.5950   -7.4970 O.2     1  UNL1       -0.5170
      3 O          20.5624   72.9063   -5.2651 O.3     1  UNL1       -0.4371
      4 O          21.3380   71.1218   -7.0320 O.3     1  UNL1       -0.3112
      5 C          20.5602   71.3145   -8.2146 C.3     1  UNL1        0.1811
      6 C          17.4105   70.1393   -6.9396 C.3     1  UNL1        0.2383
      7 C          17.0280   71.1246   -8.0736 C.3     1  UNL1        0.1895
      8 O          15.7998   70.7367   -8.6934 O.3     1  UNL1       -0.3779
      9 C          18.2175   70.9665   -9.0562 C.3     1  UNL1        0.1713
     10 C          19.3466   70.3836   -8.1863 C.3     1  UNL1        0.1764
     11 O          18.8441   70.2769   -6.8430 O.3     1  UNL1       -0.3308
     12 O          17.8762   70.0675  -10.1132 O.3     1  UNL1       -0.3794
     13 H          15.6193   71.3874   -9.3861 H       1  UNL1        0.2106
     14 H          17.1276   70.4591  -10.5832 H       1  UNL1        0.2105
     15 N          16.7694   70.5241   -5.6811 N.ar    1  UNL1       -0.2551
     16 C          16.4268   69.5767   -4.7903 C.ar    1  UNL1        0.3323
     17 N          15.8395   69.9040   -3.6242 N.ar    1  UNL1       -0.2743
     18 C          15.5753   71.1925   -3.3340 C.ar    1  UNL1        0.2626
     19 C          15.9253   72.2006   -4.2654 C.ar    1  UNL1        0.0795
     20 C          16.5173   71.8451   -5.4254 C.ar    1  UNL1        0.0869
     21 O          16.6593   68.4102   -5.0379 O.2     1  UNL1       -0.2464
     22 O          15.0393   71.4893   -2.2809 O.2     1  UNL1       -0.2670
     23 H          15.6029   69.2076   -2.9911 H       1  UNL1        0.1734
     24 O          23.1182   72.6185   -5.8072 O.3     1  UNL1       -0.2703
     25 P          22.9646   72.4736   -4.2117 P.3     1  UNL1        0.2208
     26 O          21.7506   71.6864   -3.9028 O.2     1  UNL1       -0.5170
     27 O          24.2577   71.7216   -3.6145 O.3     1  UNL1       -0.4371
     28 O          22.8412   73.9347   -3.5485 O.3     1  UNL1       -0.2858
     29 C          23.3482   74.8680   -4.5033 C.3     1  UNL1        0.2704
     30 C          24.6725   75.4437   -3.9991 C.3     1  UNL1        0.1967
     31 C          24.4373   76.1260   -2.6480 C.3     1  UNL1        0.1715
     32 C          23.3012   77.1432   -2.8039 C.3     1  UNL1        0.1694
     33 C          22.0793   76.4375   -3.3974 C.3     1  UNL1        0.1761
     34 O          25.6248   74.3898   -3.8454 O.3     1  UNL1       -0.3775
     35 O          25.6304   76.7950   -2.2339 O.3     1  UNL1       -0.3794
     36 O          23.7192   78.1970   -3.6726 O.3     1  UNL1       -0.3794
     37 O          22.4022   75.9188   -4.6868 O.3     1  UNL1       -0.3258
     38 H          25.7361   73.9851   -4.7165 H       1  UNL1        0.2106
     39 H          26.3180   76.1211   -2.1607 H       1  UNL1        0.2105
     40 H          24.4917   78.6077   -3.2629 H       1  UNL1        0.2105
     41 C          20.9275   77.4370   -3.5253 C.3     1  UNL1        0.1693
     42 O          20.0380   77.2817   -2.4182 O.3     1  UNL1       -0.3794
     43 H          19.3287   77.9284   -2.5362 H       1  UNL1        0.2105
@<TRIPOS>BOND
     1    15    16   ar
     2    15    20   ar
     3    15     6    1
     4    16    17   ar
     5    16    21    2
     6    17    18   ar
     7    17    23    1
     8    18    19   ar
     9    18    22    2
    10    19    20   ar
    11     6     7    1
    12     6    11    1
    13     7     8    1
    14     7     9    1
    15     8    13    1
    16     9    10    1
    17     9    12    1
    18    10    11    1
    19    10     5    1
    20    12    14    1
    21     5     4    1
    22     4     1    1
    23     1     2    2
    24     1     3    1
    25     1    24    1
    26    24    25    1
    27    25    26    2
    28    25    27    1
    29    25    28    1
    30    28    29    1
    31    29    30    1
    32    29    37    1
    33    30    31    1
    34    30    34    1
    35    31    32    1
    36    31    35    1
    37    32    33    1
    38    32    36    1
    39    33    41    1
    40    33    37    1
    41    41    42    1
    42    34    38    1
    43    35    39    1
    44    36    40    1
    45    42    43    1
@<TRIPOS>MOLECULE
GDU
 43 45 0 0 0
SMALL
GASTEIGER

@<TRIPOS>ATOM
      1 P          20.6393   71.3317   -0.5220 P.3     1  UNL1        0.2189
      2 O          21.7710   71.5276   -1.4550 O.2     1  UNL1       -0.5170
      3 O          20.0336   72.7643   -0.1050 O.3     1  UNL1       -0.4371
      4 O          19.4977   70.4546   -1.2391 O.3     1  UNL1       -0.3112
      5 C          19.7351   70.5365   -2.6453 C.3     1  UNL1        0.1811
      6 C          17.6378   70.4291   -5.5637 C.3     1  UNL1        0.2383
      7 C          17.5931   68.9861   -4.9991 C.3     1  UNL1        0.1895
      8 O          16.3377   68.3653   -5.2851 O.3     1  UNL1       -0.3779
      9 C          17.7563   69.2280   -3.4759 C.3     1  UNL1        0.1713
     10 C          18.3993   70.6244   -3.3855 C.3     1  UNL1        0.1764
     11 O          18.6154   71.0869   -4.7300 O.3     1  UNL1       -0.3308
     12 O          16.4825   69.2135   -2.8285 O.3     1  UNL1       -0.3794
     13 H          16.3750   67.4747   -4.9092 H       1  UNL1        0.2106
     14 H          16.1061   68.3344   -2.9705 H       1  UNL1        0.2105
     15 N          18.0714   70.4250   -6.9619 N.ar    1  UNL1       -0.2551
     16 C          17.1568   70.3341   -7.9434 C.ar    1  UNL1        0.3323
     17 N          17.5286   70.3318   -9.2371 N.ar    1  UNL1       -0.2743
     18 C          18.8313   70.4110   -9.5703 C.ar    1  UNL1        0.2626
     19 C          19.8062   70.5014   -8.5468 C.ar    1  UNL1        0.0795
     20 C          19.4056   70.5060   -7.2577 C.ar    1  UNL1        0.0869
     21 O          15.9779   70.2625   -7.6583 O.2     1  UNL1       -0.2464
     22 O          19.1692   70.4042  -10.7409 O.2     1  UNL1       -0.2670
     23 H          16.8547   70.2699   -9.9326 H       1  UNL1        0.1734
     24 O          21.1580   70.5657    0.7959 O.3     1  UNL1       -0.2703
     25 P          21.8403   71.6745    1.7419 P.3     1  UNL1        0.2208
     26 O          20.8885   72.0701    2.8034 O.2     1  UNL1       -0.5170
     27 O          23.1691   71.0614    2.4146 O.3     1  UNL1       -0.4371
     28 O          22.2316   72.9644    0.8627 O.3     1  UNL1       -0.2858
     29 C          23.6321   73.1796    1.0421 C.3     1  UNL1        0.2704
     30 C          23.8493   74.4118    1.9218 C.3     1  UNL1        0.1967
     31 C          23.1974   75.6247    1.2508 C.3     1  UNL1        0.1715
     32 C          23.7355   75.7414   -0.1797 C.3     1  UNL1        0.1694
     33 C          23.5249   74.4079   -0.9012 C.3     1  UNL1        0.1761
     34 O          23.2560   74.1955    3.2034 O.3     1  UNL1       -0.3775
     35 O          23.5168   76.8087    1.9846 O.3     1  UNL1       -0.3794
     36 O          25.1284   76.0550   -0.1421 O.3     1  UNL1       -0.3794
     37 O          24.2473   73.3775   -0.2287 O.3     1  UNL1       -0.3258
     38 H          23.6907   73.4206    3.5848 H       1  UNL1        0.2106
     39 H          23.1712   76.6861    2.8778 H       1  UNL1        0.2105
     40 H          25.2133   76.8966    0.3247 H       1  UNL1        0.2105
     41 C          24.0278   74.5244   -2.3418 C.3     1  UNL1        0.1693
     42 O          23.8697   73.2682   -3.0037 O.3     1  UNL1       -0.3794
     43 H          24.1968   73.3844   -3.9063 H       1  UNL1        0.2105
@<TRIPOS>BOND
     1    15    16   ar
     2    15    20   ar
     3    15     6    1
     4    16    17   ar
     5    16    21    2
     6    17    18   ar
     7    17    23    1
     8    18    19   ar
     9    18    22    2
    10    19    20   ar
    11     6     7    1
    12     6    11    1
    13     7     8    1
    14     7     9    1
    15     8    13    1
    16     9    10    1
    17     9    12    1
    18    10    11    1
    19    10     5    1
    20    12    14    1
    21     5     4    1
    22     4     1    1
    23     1     2    2
    24     1     3    1
    25     1    24    1
    26    24    25    1
    27    25    26    2
    28    25    27    1
    29    25    28    1
    30    28    29    1
    31    29    30    1
    32    29    37    1
    33    30    31    1
    34    30    34    1
    35    31    32    1
    36    31    35    1
    37    32    33    1
    38    32    36    1
    39    33    41    1
    40    33    37    1
    41    41    42    1
    42    34    38    1
    43    35    39    1
    44    36    40    1
    45    42    43    1
@<TRIPOS>MOLECULE
GDU
 43 45 0 0 0
SMALL
GASTEIGER

@<TRIPOS>ATOM
      1 P          20.4878   71.1328   -1.5227 P.3     1  UNL1        0.2189
      2 O          20.4889   72.6125   -1.5248 O.2     1  UNL1       -0.5170
      3 O          20.8100   70.5980   -0.0384 O.3     1  UNL1       -0.4371
      4 O          19.0437   70.5961   -1.9848 O.3     1  UNL1       -0.3112
      5 C          18.3288   71.7214   -2.4977 C.3     1  UNL1        0.1811
      6 C          16.9863   70.5673   -5.6271 C.3     1  UNL1        0.2383
      7 C          17.3402   69.2712   -4.8538 C.3     1  UNL1        0.1895
      8 O          16.4557   68.2066   -5.2111 O.3     1  UNL1       -0.3779
      9 C          17.1205   69.7018   -3.3802 C.3     1  UNL1        0.1713
     10 C          17.2096   71.2386   -3.4221 C.3     1  UNL1        0.1764
     11 O          17.4999   71.6164   -4.7791 O.3     1  UNL1       -0.3308
     12 O          15.8336   69.2809   -2.9233 O.3     1  UNL1       -0.3794
     13 H          16.7286   67.4333   -4.6980 H       1  UNL1        0.2106
     14 H          15.8195   68.3157   -2.9762 H       1  UNL1        0.2105
     15 N          17.6483   70.5887   -6.9325 N.ar    1  UNL1       -0.2551
     16 C          16.9127   70.5007   -8.0547 C.ar    1  UNL1        0.3323
     17 N          17.4964   70.5216   -9.2675 N.ar    1  UNL1       -0.2743
     18 C          18.8352   70.6218   -9.3762 C.ar    1  UNL1        0.2626
     19 C          19.6232   70.7095   -8.2025 C.ar    1  UNL1        0.0795
     20 C          19.0119   70.6905   -6.9990 C.ar    1  UNL1        0.0869
     21 O          15.7040   70.4104   -7.9726 O.2     1  UNL1       -0.2464
     22 O          19.3648   70.6360  -10.4734 O.2     1  UNL1       -0.2670
     23 H          16.9497   70.4614  -10.0671 H       1  UNL1        0.1734
     24 O          21.6128   70.5949   -2.5413 O.3     1  UNL1       -0.2703
     25 P          22.9542   71.4309   -2.2389 P.3     1  UNL1        0.2208
     26 O          23.1887   71.4757   -0.7787 O.2     1  UNL1       -0.5170
     27 O          24.2049   70.7179   -2.9611 O.3     1  UNL1       -0.4371
     28 O          22.7929   72.9293   -2.8036 O.3     1  UNL1       -0.2858
     29 C          23.9993   73.2421   -3.5010 C.3     1  UNL1        0.2704
     30 C          24.3687   74.7047   -3.2488 C.3     1  UNL1        0.1967
     31 C          23.2203   75.5985   -3.7270 C.3     1  UNL1        0.1715
     32 C          22.9012   75.2484   -5.1848 C.3     1  UNL1        0.1694
     33 C          22.6410   73.7437   -5.2898 C.3     1  UNL1        0.1761
     34 O          24.5865   74.9093   -1.8517 O.3     1  UNL1       -0.3775
     35 O          23.6092   76.9706   -3.6343 O.3     1  UNL1       -0.3794
     36 O          24.0069   75.6061   -6.0151 O.3     1  UNL1       -0.3794
     37 O          23.8092   73.0246   -4.8971 O.3     1  UNL1       -0.3258
     38 H          25.3108   74.3230   -1.5935 H       1  UNL1        0.2106
     39 H          23.8112   77.1421   -2.7058 H       1  UNL1        0.2105
     40 H          24.1373   76.5579   -5.9129 H       1  UNL1        0.2105
     41 C          22.2876   73.3886   -6.7359 C.3     1  UNL1        0.1693
     42 O          22.9789   72.1974   -7.1155 O.3     1  UNL1       -0.3794
     43 H          22.7289   72.0083   -8.0305 H       1  UNL1        0.2105
@<TRIPOS>BOND
     1    15    16   ar
     2    15    20   ar
     3    15     6    1
     4    16    17   ar
     5    16    21    2
     6    17    18   ar
     7    17    23    1
     8    18    19   ar
     9    18    22    2
    10    19    20   ar
    11     6     7    1
    12     6    11    1
    13     7     8    1
    14     7     9    1
    15     8    13    1
    16     9    10    1
    17     9    12    1
    18    10    11    1
    19    10     5    1
    20    12    14    1
    21     5     4    1
    22     4     1    1
    23     1     2    2
    24     1     3    1
    25     1    24    1
    26    24    25    1
    27    25    26    2
    28    25    27    1
    29    25    28    1
    30    28    29    1
    31    29    30    1
    32    29    37    1
    33    30    31    1
    34    30    34    1
    35    31    32    1
    36    31    35    1
    37    32    33    1
    38    32    36    1
    39    33    41    1
    40    33    37    1
    41    41    42    1
    42    34    38    1
    43    35    39    1
    44    36    40    1
    45    42    43    1
@<TRIPOS>MOLECULE
GDU
 43 45 0 0 0
SMALL
GASTEIGER

@<TRIPOS>ATOM
      1 P          22.0640   72.6811   -5.3961 P.3     1  UNL1        0.2189
      2 O          23.2383   72.5398   -6.2852 O.2     1  UNL1       -0.5170
      3 O          22.0801   74.1395   -4.7136 O.3     1  UNL1       -0.4371
      4 O          20.7157   72.5055   -6.2553 O.3     1  UNL1       -0.3112
      5 C          21.0154   71.5946   -7.3140 C.3     1  UNL1        0.1811
      6 C          17.8029   70.1987   -6.5024 C.3     1  UNL1        0.2383
      7 C          17.5276   71.1336   -7.7080 C.3     1  UNL1        0.1895
      8 O          16.4418   70.6419   -8.4969 O.3     1  UNL1       -0.3779
      9 C          18.8627   71.0529   -8.4930 C.3     1  UNL1        0.1713
     10 C          19.8844   70.5729   -7.4456 C.3     1  UNL1        0.1764
     11 O          19.1902   70.4486   -6.1922 O.3     1  UNL1       -0.3308
     12 O          18.7561   70.1137   -9.5647 O.3     1  UNL1       -0.3794
     13 H          16.3224   71.2658   -9.2266 H       1  UNL1        0.2106
     14 H          18.0618   70.4387  -10.1539 H       1  UNL1        0.2105
     15 N          16.9488   70.5522   -5.3673 N.ar    1  UNL1       -0.2551
     16 C          16.5283   69.5923   -4.5247 C.ar    1  UNL1        0.3323
     17 N          15.7453   69.8911   -3.4714 N.ar    1  UNL1       -0.2743
     18 C          15.3603   71.1625   -3.2493 C.ar    1  UNL1        0.2626
     19 C          15.7908   72.1833   -4.1319 C.ar    1  UNL1        0.0795
     20 C          16.5791   71.8567   -5.1780 C.ar    1  UNL1        0.0869
     21 O          16.8678   68.4408   -4.7119 O.2     1  UNL1       -0.2464
     22 O          14.6476   71.4333   -2.2989 O.2     1  UNL1       -0.2670
     23 H          15.4547   69.1862   -2.8710 H       1  UNL1        0.1734
     24 O          22.1217   71.5527   -4.2490 O.3     1  UNL1       -0.2703
     25 P          23.3726   71.9128   -3.3027 P.3     1  UNL1        0.2208
     26 O          24.1486   70.6846   -3.0227 O.2     1  UNL1       -0.5170
     27 O          24.3164   72.9854   -4.0463 O.3     1  UNL1       -0.4371
     28 O          22.8381   72.5380   -1.9195 O.3     1  UNL1       -0.2858
     29 C          23.2466   71.6507   -0.8777 C.3     1  UNL1        0.2704
     30 C          22.0323   71.2665   -0.0307 C.3     1  UNL1        0.1967
     31 C          21.4104   72.5381    0.5548 C.3     1  UNL1        0.1715
     32 C          22.5008   73.3208    1.2951 C.3     1  UNL1        0.1694
     33 C          23.6796   73.5510    0.3461 C.3     1  UNL1        0.1761
     34 O          21.0720   70.5948   -0.8479 O.3     1  UNL1       -0.3775
     35 O          20.3663   72.1867    1.4651 O.3     1  UNL1       -0.3794
     36 O          22.9357   72.5747    2.4328 O.3     1  UNL1       -0.3794
     37 O          24.2216   72.2956   -0.0616 O.3     1  UNL1       -0.3258
     38 H          21.5078   69.8068   -1.2001 H       1  UNL1        0.2106
     39 H          19.7115   71.6876    0.9607 H       1  UNL1        0.2105
     40 H          22.1620   72.4492    2.9975 H       1  UNL1        0.2105
     41 C          24.7602   74.3618    1.0652 C.3     1  UNL1        0.1693
     42 O          24.1420   75.3188    1.9270 O.3     1  UNL1       -0.3794
     43 H          24.8554   75.8071    2.3606 H       1  UNL1        0.2105
@<TRIPOS>BOND
     1    15    16   ar
     2    15    20   ar
     3    15     6    1
     4    16    17   ar
     5    16    21    2
     6    17    18   ar
     7    17    23    1
     8    18    19   ar
     9    18    22    2
    10    19    20   ar
    11     6     7    1
    12     6    11    1
    13     7     8    1
    14     7     9    1
    15     8    13    1
    16     9    10    1
    17     9    12    1
    18    10    11    1
    19    10     5    1
    20    12    14    1
    21     5     4    1
    22     4     1    1
    23     1     2    2
    24     1     3    1
    25     1    24    1
    26    24    25    1
    27    25    26    2
    28    25    27    1
    29    25    28    1
    30    28    29    1
    31    29    30    1
    32    29    37    1
    33    30    31    1
    34    30    34    1
    35    31    32    1
    36    31    35    1
    37    32    33    1
    38    32    36    1
    39    33    41    1
    40    33    37    1
    41    41    42    1
    42    34    38    1
    43    35    39    1
    44    36    40    1
    45    42    43    1
@<TRIPOS>MOLECULE
GDU
 43 45 0 0 0
SMALL
GASTEIGER

@<TRIPOS>ATOM
      1 P          21.9053   71.5003   -3.1736 P.3     1  UNL1        0.2189
      2 O          23.2720   70.9507   -3.3132 O.2     1  UNL1       -0.5170
      3 O          21.7394   72.7776   -4.1401 O.3     1  UNL1       -0.4371
      4 O          20.8300   70.3758   -3.5811 O.3     1  UNL1       -0.3112
      5 C          19.7673   70.4555   -2.6299 C.3     1  UNL1        0.1811
      6 C          17.6573   70.4369   -5.5411 C.3     1  UNL1        0.2383
      7 C          17.5703   68.9913   -4.9882 C.3     1  UNL1        0.1895
      8 O          16.2954   68.4118   -5.2745 O.3     1  UNL1       -0.3779
      9 C          17.7463   69.2154   -3.4637 C.3     1  UNL1        0.1713
     10 C          18.4322   70.5906   -3.3643 C.3     1  UNL1        0.1764
     11 O          18.6576   71.0574   -4.7057 O.3     1  UNL1       -0.3308
     12 O          16.4750   69.2346   -2.8116 O.3     1  UNL1       -0.3794
     13 H          16.3066   67.5173   -4.9062 H       1  UNL1        0.2106
     14 H          16.0712   68.3687   -2.9595 H       1  UNL1        0.2105
     15 N          18.0856   70.4312   -6.9409 N.ar    1  UNL1       -0.2551
     16 C          17.1688   70.3194   -7.9183 C.ar    1  UNL1        0.3323
     17 N          17.5357   70.3152   -9.2133 N.ar    1  UNL1       -0.2743
     18 C          18.8356   70.4135   -9.5521 C.ar    1  UNL1        0.2626
     19 C          19.8129   70.5260   -8.5330 C.ar    1  UNL1        0.0795
     20 C          19.4171   70.5320   -7.2424 C.ar    1  UNL1        0.0869
     21 O          15.9924   70.2305   -7.6281 O.2     1  UNL1       -0.2464
     22 O          19.1691   70.4049  -10.7240 O.2     1  UNL1       -0.2670
     23 H          16.8602   70.2380   -9.9058 H       1  UNL1        0.1734
     24 O          21.6617   71.9493   -1.6467 O.3     1  UNL1       -0.2703
     25 P          21.8582   73.5457   -1.5926 P.3     1  UNL1        0.2208
     26 O          23.1599   73.9030   -2.1983 O.2     1  UNL1       -0.5170
     27 O          20.6708   74.2603   -2.4133 O.3     1  UNL1       -0.4371
     28 O          21.8238   74.0402   -0.0615 O.3     1  UNL1       -0.2858
     29 C          21.0662   73.0750    0.6694 C.3     1  UNL1        0.2704
     30 C          19.8361   73.7489    1.2792 C.3     1  UNL1        0.1967
     31 C          20.2945   74.8854    2.1983 C.3     1  UNL1        0.1715
     32 C          21.2988   74.3224    3.2103 C.3     1  UNL1        0.1694
     33 C          22.4199   73.6062    2.4532 C.3     1  UNL1        0.1761
     34 O          19.0133   74.2764    0.2371 O.3     1  UNL1       -0.3775
     35 O          19.1673   75.4290    2.8885 O.3     1  UNL1       -0.3794
     36 O          20.6371   73.4009    4.0781 O.3     1  UNL1       -0.3794
     37 O          21.8769   72.5207    1.7029 O.3     1  UNL1       -0.3258
     38 H          18.7547   73.5292   -0.3194 H       1  UNL1        0.2106
     39 H          18.5592   75.7590    2.2150 H       1  UNL1        0.2105
     40 H          19.9379   73.8929    4.5280 H       1  UNL1        0.2105
     41 C          23.4465   73.0697    3.4533 C.3     1  UNL1        0.1693
     42 O          23.2368   71.6696    3.6450 O.3     1  UNL1       -0.3794
     43 H          23.9027   71.3712    4.2797 H       1  UNL1        0.2105
@<TRIPOS>BOND
     1    15    16   ar
     2    15    20   ar
     3    15     6    1
     4    16    17   ar
     5    16    21    2
     6    17    18   ar
     7    17    23    1
     8    18    19   ar
     9    18    22    2
    10    19    20   ar
    11     6     7    1
    12     6    11    1
    13     7     8    1
    14     7     9    1
    15     8    13    1
    16     9    10    1
    17     9    12    1
    18    10    11    1
    19    10     5    1
    20    12    14    1
    21     5     4    1
    22     4     1    1
    23     1     2    2
    24     1     3    1
    25     1    24    1
    26    24    25    1
    27    25    26    2
    28    25    27    1
    29    25    28    1
    30    28    29    1
    31    29    30    1
    32    29    37    1
    33    30    31    1
    34    30    34    1
    35    31    32    1
    36    31    35    1
    37    32    33    1
    38    32    36    1
    39    33    41    1
    40    33    37    1
    41    41    42    1
    42    34    38    1
    43    35    39    1
    44    36    40    1
    45    42    43    1
@<TRIPOS>MOLECULE
GDU
 43 45 0 0 0
SMALL
GASTEIGER

@<TRIPOS>ATOM
      1 P          21.4605   71.5040   -0.3741 P.3     1  UNL1        0.2189
      2 O          21.0307   70.3400    0.4321 O.2     1  UNL1       -0.5170
      3 O          22.7069   71.0830   -1.3025 O.3     1  UNL1       -0.4371
      4 O          20.2416   71.9941   -1.3020 O.3     1  UNL1       -0.3112
      5 C          20.2038   71.1200   -2.4312 C.3     1  UNL1        0.1811
      6 C          17.8472   70.7954   -5.1271 C.3     1  UNL1        0.2383
      7 C          17.8883   69.3897   -4.4749 C.3     1  UNL1        0.1895
      8 O          16.6263   68.7308   -4.6034 O.3     1  UNL1       -0.3779
      9 C          18.1869   69.7286   -2.9912 C.3     1  UNL1        0.1713
     10 C          18.8032   71.1388   -3.0462 C.3     1  UNL1        0.1764
     11 O          18.8827   71.5205   -4.4304 O.3     1  UNL1       -0.3308
     12 O          16.9795   69.7324   -2.2269 O.3     1  UNL1       -0.3794
     13 H          16.7188   67.8661   -4.1797 H       1  UNL1        0.2106
     14 H          16.6118   68.8398   -2.2797 H       1  UNL1        0.2105
     15 N          18.1488   70.7119   -6.5571 N.ar    1  UNL1       -0.2551
     16 C          17.1459   70.5846   -7.4439 C.ar    1  UNL1        0.3323
     17 N          17.3958   70.5092   -8.7644 N.ar    1  UNL1       -0.2743
     18 C          18.6626   70.5505   -9.2201 C.ar    1  UNL1        0.2626
     19 C          19.7295   70.6786   -8.2972 C.ar    1  UNL1        0.0795
     20 C          19.4505   70.7563   -6.9787 C.ar    1  UNL1        0.0869
     21 O          15.9980   70.5464   -7.0478 O.2     1  UNL1       -0.2464
     22 O          18.8901   70.4776  -10.4149 O.2     1  UNL1       -0.2670
     23 H          16.6595   70.4219   -9.3905 H       1  UNL1        0.1734
     24 O          21.9043   72.7008    0.6074 O.3     1  UNL1       -0.2703
     25 P          23.0994   72.1337    1.5240 P.3     1  UNL1        0.2208
     26 O          23.0025   70.6594    1.6038 O.2     1  UNL1       -0.5170
     27 O          24.5148   72.5435    0.8740 O.3     1  UNL1       -0.4371
     28 O          22.9874   72.7606    3.0020 O.3     1  UNL1       -0.2858
     29 C          22.9012   74.1777    2.8462 C.3     1  UNL1        0.2704
     30 C          24.0454   74.8445    3.6113 C.3     1  UNL1        0.1967
     31 C          23.9495   74.4561    5.0900 C.3     1  UNL1        0.1715
     32 C          22.5425   74.7946    5.5952 C.3     1  UNL1        0.1694
     33 C          21.5115   74.1293    4.6800 C.3     1  UNL1        0.1761
     34 O          25.2967   74.4052    3.0797 O.3     1  UNL1       -0.3775
     35 O          24.9209   75.1863    5.8421 O.3     1  UNL1       -0.3794
     36 O          22.3576   76.2108    5.5812 O.3     1  UNL1       -0.3794
     37 O          21.6492   74.6344    3.3527 O.3     1  UNL1       -0.3258
     38 H          25.3102   74.6638    2.1482 H       1  UNL1        0.2106
     39 H          25.7863   74.9524    5.4834 H       1  UNL1        0.2105
     40 H          23.0297   76.5866    6.1646 H       1  UNL1        0.2105
     41 C          20.1030   74.4328    5.1959 C.3     1  UNL1        0.1693
     42 O          19.1458   73.7155    4.4148 O.3     1  UNL1       -0.3794
     43 H          18.2737   73.9331    4.7718 H       1  UNL1        0.2105
@<TRIPOS>BOND
     1    15    16   ar
     2    15    20   ar
     3    15     6    1
     4    16    17   ar
     5    16    21    2
     6    17    18   ar
     7    17    23    1
     8    18    19   ar
     9    18    22    2
    10    19    20   ar
    11     6     7    1
    12     6    11    1
    13     7     8    1
    14     7     9    1
    15     8    13    1
    16     9    10    1
    17     9    12    1
    18    10    11    1
    19    10     5    1
    20    12    14    1
    21     5     4    1
    22     4     1    1
    23     1     2    2
    24     1     3    1
    25     1    24    1
    26    24    25    1
    27    25    26    2
    28    25    27    1
    29    25    28    1
    30    28    29    1
    31    29    30    1
    32    29    37    1
    33    30    31    1
    34    30    34    1
    35    31    32    1
    36    31    35    1
    37    32    33    1
    38    32    36    1
    39    33    41    1
    40    33    37    1
    41    41    42    1
    42    34    38    1
    43    35    39    1
    44    36    40    1
    45    42    43    1
@<TRIPOS>MOLECULE
GDU
 43 45 0 0 0
SMALL
GASTEIGER

@<TRIPOS>ATOM
      1 P          22.0698   72.9012   -6.6613 P.3     1  UNL1        0.2189
      2 O          22.4307   73.2301   -8.0581 O.2     1  UNL1       -0.5170
      3 O          21.3724   74.1787   -5.9723 O.3     1  UNL1       -0.4371
      4 O          21.0471   71.6599   -6.6489 O.3     1  UNL1       -0.3112
      5 C          20.5703   71.5033   -7.9863 C.3     1  UNL1        0.1811
      6 C          17.3971   70.2665   -6.8337 C.3     1  UNL1        0.2383
      7 C          17.0414   71.2225   -8.0010 C.3     1  UNL1        0.1895
      8 O          15.8529   70.7922   -8.6685 O.3     1  UNL1       -0.3779
      9 C          18.2779   71.0798   -8.9261 C.3     1  UNL1        0.1713
     10 C          19.3809   70.5413   -7.9961 C.3     1  UNL1        0.1764
     11 O          18.8208   70.4435   -6.6752 O.3     1  UNL1       -0.3308
     12 O          18.0082   70.1548   -9.9814 O.3     1  UNL1       -0.3794
     13 H          15.6875   71.4264   -9.3800 H       1  UNL1        0.2106
     14 H          17.2719   70.5187  -10.4914 H       1  UNL1        0.2105
     15 N          16.6899   70.6549   -5.6123 N.ar    1  UNL1       -0.2551
     16 C          16.5110   69.7540   -4.6302 C.ar    1  UNL1        0.3323
     17 N          15.8673   70.0864   -3.4957 N.ar    1  UNL1       -0.2743
     18 C          15.3809   71.3314   -3.3296 C.ar    1  UNL1        0.2626
     19 C          15.5568   72.2892   -4.3581 C.ar    1  UNL1        0.0795
     20 C          16.2098   71.9306   -5.4839 C.ar    1  UNL1        0.0869
     21 O          16.9446   68.6271   -4.7654 O.2     1  UNL1       -0.2464
     22 O          14.7939   71.6318   -2.3051 O.2     1  UNL1       -0.2670
     23 H          15.7510   69.4246   -2.7954 H       1  UNL1        0.1734
     24 O          23.3998   72.5107   -5.8421 O.3     1  UNL1       -0.2703
     25 P          23.0979   72.8132   -4.2906 P.3     1  UNL1        0.2208
     26 O          23.9616   71.9602   -3.4448 O.2     1  UNL1       -0.5170
     27 O          23.4033   74.3632   -3.9769 O.3     1  UNL1       -0.4371
     28 O          21.5524   72.4970   -3.9719 O.3     1  UNL1       -0.2858
     29 C          21.3409   72.8074   -2.5939 C.3     1  UNL1        0.2704
     30 C          20.7527   71.5882   -1.8818 C.3     1  UNL1        0.1967
     31 C          19.4332   71.2041   -2.5584 C.3     1  UNL1        0.1715
     32 C          18.5248   72.4382   -2.5969 C.3     1  UNL1        0.1694
     33 C          19.2820   73.5932   -3.2571 C.3     1  UNL1        0.1761
     34 O          21.6705   70.4965   -1.9649 O.3     1  UNL1       -0.3775
     35 O          18.7987   70.1609   -1.8157 O.3     1  UNL1       -0.3794
     36 O          18.1557   72.8015   -1.2659 O.3     1  UNL1       -0.3794
     37 O          20.4423   73.9093   -2.4893 O.3     1  UNL1       -0.3258
     38 H          22.4868   70.7848   -1.5342 H       1  UNL1        0.2106
     39 H          19.4086   69.4124   -1.8076 H       1  UNL1        0.2105
     40 H          17.6883   72.0448   -0.8886 H       1  UNL1        0.2105
     41 C          18.3716   74.8210   -3.3316 C.3     1  UNL1        0.1693
     42 O          17.8998   74.9826   -4.6704 O.3     1  UNL1       -0.3794
     43 H          17.3307   75.7645   -4.6741 H       1  UNL1        0.2105
@<TRIPOS>BOND
     1    15    16   ar
     2    15    20   ar
     3    15     6    1
     4    16    17   ar
     5    16    21    2
     6    17    18   ar
     7    17    23    1
     8    18    19   ar
     9    18    22    2
    10    19    20   ar
    11     6     7    1
    12     6    11    1
    13     7     8    1
    14     7     9    1
    15     8    13    1
    16     9    10    1
    17     9    12    1
    18    10    11    1
    19    10     5    1
    20    12    14    1
    21     5     4    1
    22     4     1    1
    23     1     2    2
    24     1     3    1
    25     1    24    1
    26    24    25    1
    27    25    26    2
    28    25    27    1
    29    25    28    1
    30    28    29    1
    31    29    30    1
    32    29    37    1
    33    30    31    1
    34    30    34    1
    35    31    32    1
    36    31    35    1
    37    32    33    1
    38    32    36    1
    39    33    41    1
    40    33    37    1
    41    41    42    1
    42    34    38    1
    43    35    39    1
    44    36    40    1
    45    42    43    1
@<TRIPOS>MOLECULE
GDU
 43 45 0 0 0
SMALL
GASTEIGER

@<TRIPOS>ATOM
      1 P          23.2599   72.1253   -3.5150 P.3     1  UNL1        0.2189
      2 O          23.6781   72.8647   -4.7266 O.2     1  UNL1       -0.5170
      3 O          24.3174   70.9492   -3.2123 O.3     1  UNL1       -0.4371
      4 O          23.2055   73.1333   -2.2628 O.3     1  UNL1       -0.3112
      5 C          22.1804   72.6547   -1.3906 C.3     1  UNL1        0.1811
      6 C          24.1930   71.8516    1.4785 C.3     1  UNL1        0.2383
      7 C          22.7695   72.0722    2.0512 C.3     1  UNL1        0.1895
      8 O          22.5534   71.2597    3.2072 O.3     1  UNL1       -0.3779
      9 C          21.8708   71.6104    0.8746 C.3     1  UNL1        0.1713
     10 C          22.7896   71.7050   -0.3577 C.3     1  UNL1        0.1764
     11 O          24.0573   72.2168    0.0886 O.3     1  UNL1       -0.3308
     12 O          21.4329   70.2656    1.0784 O.3     1  UNL1       -0.3794
     13 H          21.6542   71.4436    3.5131 H       1  UNL1        0.2106
     14 H          20.9136   70.2607    1.8939 H       1  UNL1        0.2105
     15 N          25.1613   72.7215    2.1482 N.ar    1  UNL1       -0.2551
     16 C          26.2852   72.1946    2.6652 C.ar    1  UNL1        0.3323
     17 N          27.1934   72.9729    3.2828 N.ar    1  UNL1       -0.2743
     18 C          26.9844   74.2982    3.4019 C.ar    1  UNL1        0.2626
     19 C          25.8022   74.8662    2.8672 C.ar    1  UNL1        0.0795
     20 C          24.9101   74.0635    2.2490 C.ar    1  UNL1        0.0869
     21 O          26.4878   71.0008    2.5650 O.2     1  UNL1       -0.2464
     22 O          27.8036   75.0027    3.9650 O.2     1  UNL1       -0.2670
     23 H          28.0010   72.5763    3.6464 H       1  UNL1        0.1734
     24 O          21.8019   71.4856   -3.7544 O.3     1  UNL1       -0.2703
     25 P          21.3038   71.9875   -5.2001 P.3     1  UNL1        0.2208
     26 O          20.8306   73.3858   -5.1005 O.2     1  UNL1       -0.5170
     27 O          22.5261   71.9083   -6.2459 O.3     1  UNL1       -0.4371
     28 O          20.1009   71.0480   -5.7104 O.3     1  UNL1       -0.2858
     29 C          19.1042   71.9113   -6.2592 C.3     1  UNL1        0.2704
     30 C          17.7344   71.5305   -5.6955 C.3     1  UNL1        0.1967
     31 C          17.4384   70.0697   -6.0486 C.3     1  UNL1        0.1715
     32 C          17.5933   69.8906   -7.5631 C.3     1  UNL1        0.1694
     33 C          18.9757   70.3943   -7.9851 C.3     1  UNL1        0.1761
     34 O          17.7400   71.6896   -4.2756 O.3     1  UNL1       -0.3775
     35 O          16.1032   69.7423   -5.6580 O.3     1  UNL1       -0.3794
     36 O          16.5805   70.6376   -8.2386 O.3     1  UNL1       -0.3794
     37 O          19.0962   71.7828   -7.6790 O.3     1  UNL1       -0.3258
     38 H          17.9369   72.6198   -4.0999 H       1  UNL1        0.2106
     39 H          16.0489   69.8804   -4.7040 H       1  UNL1        0.2105
     40 H          15.7301   70.2909   -7.9387 H       1  UNL1        0.2105
     41 C          19.1539   70.1884   -9.4910 C.3     1  UNL1        0.1693
     42 O          18.4607   71.2188  -10.1971 O.3     1  UNL1       -0.3794
     43 H          18.5983   71.0533  -11.1400 H       1  UNL1        0.2105
@<TRIPOS>BOND
     1    15    16   ar
     2    15    20   ar
     3    15     6    1
     4    16    17   ar
     5    16    21    2
     6    17    18   ar
     7    17    23    1
     8    18    19   ar
     9    18    22    2
    10    19    20   ar
    11     6     7    1
    12     6    11    1
    13     7     8    1
    14     7     9    1
    15     8    13    1
    16     9    10    1
    17     9    12    1
    18    10    11    1
    19    10     5    1
    20    12    14    1
    21     5     4    1
    22     4     1    1
    23     1     2    2
    24     1     3    1
    25     1    24    1
    26    24    25    1
    27    25    26    2
    28    25    27    1
    29    25    28    1
    30    28    29    1
    31    29    30    1
    32    29    37    1
    33    30    31    1
    34    30    34    1
    35    31    32    1
    36    31    35    1
    37    32    33    1
    38    32    36    1
    39    33    41    1
    40    33    37    1
    41    41    42    1
    42    34    38    1
    43    35    39    1
    44    36    40    1
    45    42    43    1
@<TRIPOS>MOLECULE
GDU
 43 45 0 0 0
SMALL
GASTEIGER

@<TRIPOS>ATOM
      1 P          22.7111   73.3704   -4.9178 P.3     1  UNL1        0.2189
      2 O          23.0929   72.1261   -5.6218 O.2     1  UNL1       -0.5170
      3 O          23.1298   74.6427   -5.8118 O.3     1  UNL1       -0.4371
      4 O          21.1211   73.3844   -4.6759 O.3     1  UNL1       -0.3112
      5 C          20.6224   74.5830   -5.2719 C.3     1  UNL1        0.1811
      6 C          18.1031   72.6791   -6.9909 C.3     1  UNL1        0.2383
      7 C          17.3339   73.8759   -6.3753 C.3     1  UNL1        0.1895
      8 O          16.2144   74.2350   -7.1883 O.3     1  UNL1       -0.3779
      9 C          18.4084   74.9941   -6.3885 C.3     1  UNL1        0.1713
     10 C          19.7428   74.2299   -6.4726 C.3     1  UNL1        0.1764
     11 O          19.4362   72.8249   -6.4571 O.3     1  UNL1       -0.3308
     12 O          18.2357   75.8395   -7.5276 O.3     1  UNL1       -0.3794
     13 H          15.7808   74.9816   -6.7518 H       1  UNL1        0.2106
     14 H          17.3607   76.2426   -7.4471 H       1  UNL1        0.2105
     15 N          17.5127   71.4093   -6.5643 N.ar    1  UNL1       -0.2551
     16 C          16.4891   70.8828   -7.2595 C.ar    1  UNL1        0.3323
     17 N          15.9307   69.7150   -6.8906 N.ar    1  UNL1       -0.2743
     18 C          16.3848   69.0565   -5.8069 C.ar    1  UNL1        0.2626
     19 C          17.4586   69.6020   -5.0615 C.ar    1  UNL1        0.0795
     20 C          18.0031   70.7726   -5.4560 C.ar    1  UNL1        0.0869
     21 O          16.0690   71.4651   -8.2396 O.2     1  UNL1       -0.2464
     22 O          15.8769   68.0017   -5.4693 O.2     1  UNL1       -0.2670
     23 H          15.1955   69.3475   -7.4065 H       1  UNL1        0.1734
     24 O          23.4716   73.4388   -3.5003 O.3     1  UNL1       -0.2703
     25 P          23.0595   72.1137   -2.6853 P.3     1  UNL1        0.2208
     26 O          21.7452   71.6300   -3.1626 O.2     1  UNL1       -0.5170
     27 O          24.1696   70.9711   -2.9226 O.3     1  UNL1       -0.4371
     28 O          22.9691   72.4545   -1.1150 O.3     1  UNL1       -0.2858
     29 C          23.1432   71.2232   -0.4125 C.3     1  UNL1        0.2704
     30 C          21.9136   70.9547    0.4566 C.3     1  UNL1        0.1967
     31 C          21.7335   72.1167    1.4383 C.3     1  UNL1        0.1715
     32 C          23.0446   72.3166    2.2069 C.3     1  UNL1        0.1694
     33 C          24.1889   72.4839    1.2042 C.3     1  UNL1        0.1761
     34 O          20.7560   70.8434   -0.3732 O.3     1  UNL1       -0.3775
     35 O          20.6790   71.8128    2.3537 O.3     1  UNL1       -0.3794
     36 O          23.2910   71.1793    3.0351 O.3     1  UNL1       -0.3794
     37 O          24.3067   71.3062    0.4072 O.3     1  UNL1       -0.3258
     38 H          20.9162   70.1064   -0.9782 H       1  UNL1        0.2106
     39 H          19.8799   71.6839    1.8273 H       1  UNL1        0.2105
     40 H          22.5447   71.1099    3.6446 H       1  UNL1        0.2105
     41 C          25.4980   72.7184    1.9613 C.3     1  UNL1        0.1693
     42 O          25.8013   74.1145    1.9655 O.3     1  UNL1       -0.3794
     43 H          26.6307   74.2192    2.4517 H       1  UNL1        0.2105
@<TRIPOS>BOND
     1    15    16   ar
     2    15    20   ar
     3    15     6    1
     4    16    17   ar
     5    16    21    2
     6    17    18   ar
     7    17    23    1
     8    18    19   ar
     9    18    22    2
    10    19    20   ar
    11     6     7    1
    12     6    11    1
    13     7     8    1
    14     7     9    1
    15     8    13    1
    16     9    10    1
    17     9    12    1
    18    10    11    1
    19    10     5    1
    20    12    14    1
    21     5     4    1
    22     4     1    1
    23     1     2    2
    24     1     3    1
    25     1    24    1
    26    24    25    1
    27    25    26    2
    28    25    27    1
    29    25    28    1
    30    28    29    1
    31    29    30    1
    32    29    37    1
    33    30    31    1
    34    30    34    1
    35    31    32    1
    36    31    35    1
    37    32    33    1
    38    32    36    1
    39    33    41    1
    40    33    37    1
    41    41    42    1
    42    34    38    1
    43    35    39    1
    44    36    40    1
    45    42    43    1
@<TRIPOS>MOLECULE
GDU
 43 45 0 0 0
SMALL
GASTEIGER

@<TRIPOS>ATOM
      1 P          21.3219   73.2757   -2.1059 P.3     1  UNL1        0.2189
      2 O          21.0654   71.8213   -2.0138 O.2     1  UNL1       -0.5170
      3 O          19.9318   74.0514   -2.3485 O.3     1  UNL1       -0.4371
      4 O          21.9920   73.7906   -0.7375 O.3     1  UNL1       -0.3112
      5 C          20.9731   73.7505    0.2629 C.3     1  UNL1        0.1811
      6 C          23.0875   71.9008    2.5069 C.3     1  UNL1        0.2383
      7 C          22.3814   72.9448    3.4093 C.3     1  UNL1        0.1895
      8 O          22.2031   72.4368    4.7335 O.3     1  UNL1       -0.3779
      9 C          21.0156   73.1203    2.6957 C.3     1  UNL1        0.1713
     10 C          21.2781   72.6307    1.2594 C.3     1  UNL1        0.1764
     11 O          22.6670   72.2670    1.1755 O.3     1  UNL1       -0.3308
     12 O          20.0147   72.3208    3.3289 O.3     1  UNL1       -0.3794
     13 H          21.7611   73.1313    5.2414 H       1  UNL1        0.2106
     14 H          19.9387   72.6365    4.2395 H       1  UNL1        0.2105
     15 N          24.5420   72.0045    2.6352 N.ar    1  UNL1       -0.2551
     16 C          25.3109   70.9275    2.3965 C.ar    1  UNL1        0.3323
     17 N          26.6509   70.9970    2.5041 N.ar    1  UNL1       -0.2743
     18 C          27.2452   72.1508    2.8642 C.ar    1  UNL1        0.2626
     19 C          26.4475   73.2919    3.1243 C.ar    1  UNL1        0.0795
     20 C          25.1062   73.1957    3.0049 C.ar    1  UNL1        0.0869
     21 O          24.7892   69.8799    2.0703 O.2     1  UNL1       -0.2464
     22 O          28.4577   72.2134    2.9664 O.2     1  UNL1       -0.2670
     23 H          27.1907   70.2109    2.3239 H       1  UNL1        0.1734
     24 O          22.3191   73.5669   -3.3361 O.3     1  UNL1       -0.2703
     25 P          22.2168   72.3042   -4.3286 P.3     1  UNL1        0.2208
     26 O          23.2348   72.4314   -5.3948 O.2     1  UNL1       -0.5170
     27 O          22.4755   70.9478   -3.4995 O.3     1  UNL1       -0.4371
     28 O          20.7499   72.2566   -4.9888 O.3     1  UNL1       -0.2858
     29 C          20.4979   70.8960   -5.3422 C.3     1  UNL1        0.2704
     30 C          20.3242   70.7874   -6.8580 C.3     1  UNL1        0.1967
     31 C          19.1601   71.6834   -7.2919 C.3     1  UNL1        0.1715
     32 C          17.9230   71.3142   -6.4656 C.3     1  UNL1        0.1694
     33 C          18.2786   71.3849   -4.9784 C.3     1  UNL1        0.1761
     34 O          21.5239   71.2100   -7.5086 O.3     1  UNL1       -0.3775
     35 O          18.8906   71.4813   -8.6808 O.3     1  UNL1       -0.3794
     36 O          17.5034   69.9903   -6.7991 O.3     1  UNL1       -0.3794
     37 O          19.3141   70.4478   -4.6861 O.3     1  UNL1       -0.3258
     38 H          22.2292   70.6244   -7.2012 H       1  UNL1        0.2106
     39 H          19.6966   71.7136   -9.1590 H       1  UNL1        0.2105
     40 H          17.2961   69.9918   -7.7427 H       1  UNL1        0.2105
     41 C          17.0403   71.0511   -4.1434 C.3     1  UNL1        0.1693
     42 O          16.1814   70.1880   -4.8905 O.3     1  UNL1       -0.3794
     43 H          15.4157   70.0016   -4.3301 H       1  UNL1        0.2105
@<TRIPOS>BOND
     1    15    16   ar
     2    15    20   ar
     3    15     6    1
     4    16    17   ar
     5    16    21    2
     6    17    18   ar
     7    17    23    1
     8    18    19   ar
     9    18    22    2
    10    19    20   ar
    11     6     7    1
    12     6    11    1
    13     7     8    1
    14     7     9    1
    15     8    13    1
    16     9    10    1
    17     9    12    1
    18    10    11    1
    19    10     5    1
    20    12    14    1
    21     5     4    1
    22     4     1    1
    23     1     2    2
    24     1     3    1
    25     1    24    1
    26    24    25    1
    27    25    26    2
    28    25    27    1
    29    25    28    1
    30    28    29    1
    31    29    30    1
    32    29    37    1
    33    30    31    1
    34    30    34    1
    35    31    32    1
    36    31    35    1
    37    32    33    1
    38    32    36    1
    39    33    41    1
    40    33    37    1
    41    41    42    1
    42    34    38    1
    43    35    39    1
    44    36    40    1
    45    42    43    1
@<TRIPOS>MOLECULE
GDU
 43 45 0 0 0
SMALL
GASTEIGER

@<TRIPOS>ATOM
      1 P          21.8311   72.6215   -6.4525 P.3     1  UNL1        0.2189
      2 O          23.0785   72.4922   -5.6670 O.2     1  UNL1       -0.5170
      3 O          22.0625   73.6621   -7.6594 O.3     1  UNL1       -0.4371
      4 O          21.4230   71.1861   -7.0524 O.3     1  UNL1       -0.3112
      5 C          20.5973   71.4333   -8.1915 C.3     1  UNL1        0.1811
      6 C          17.4993   70.1106   -6.9345 C.3     1  UNL1        0.2383
      7 C          17.0746   71.1223   -8.0295 C.3     1  UNL1        0.1895
      8 O          15.8541   70.7164   -8.6531 O.3     1  UNL1       -0.3779
      9 C          18.2597   71.0384   -9.0265 C.3     1  UNL1        0.1713
     10 C          19.4150   70.4625   -8.1869 C.3     1  UNL1        0.1764
     11 O          18.9284   70.2919   -6.8444 O.3     1  UNL1       -0.3308
     12 O          17.9384   70.1667  -10.1122 O.3     1  UNL1       -0.3794
     13 H          15.6463   71.3850   -9.3207 H       1  UNL1        0.2106
     14 H          17.1732   70.5498  -10.5620 H       1  UNL1        0.2105
     15 N          16.8574   70.4293   -5.6580 N.ar    1  UNL1       -0.2551
     16 C          16.4320   69.4349   -4.8590 C.ar    1  UNL1        0.3323
     17 N          15.8419   69.7006   -3.6787 N.ar    1  UNL1       -0.2743
     18 C          15.6585   70.9746   -3.2818 C.ar    1  UNL1        0.2626
     19 C          16.0964   72.0324   -4.1158 C.ar    1  UNL1        0.0795
     20 C          16.6889   71.7377   -5.2925 C.ar    1  UNL1        0.0869
     21 O          16.5910   68.2807   -5.2034 O.2     1  UNL1       -0.2464
     22 O          15.1202   71.2162   -2.2158 O.2     1  UNL1       -0.2670
     23 H          15.5449   68.9704   -3.1127 H       1  UNL1        0.1734
     24 O          20.6512   73.1613   -5.4992 O.3     1  UNL1       -0.2703
     25 P          20.7716   72.3603   -4.1085 P.3     1  UNL1        0.2208
     26 O          19.5594   72.6002   -3.2948 O.2     1  UNL1       -0.5170
     27 O          20.9131   70.7841   -4.4079 O.3     1  UNL1       -0.4371
     28 O          22.0687   72.8710   -3.3044 O.3     1  UNL1       -0.2858
     29 C          21.7115   74.1058   -2.6819 C.3     1  UNL1        0.2704
     30 C          22.7211   75.1852   -3.0754 C.3     1  UNL1        0.1967
     31 C          24.1204   74.7430   -2.6362 C.3     1  UNL1        0.1715
     32 C          24.0800   74.4012   -1.1425 C.3     1  UNL1        0.1694
     33 C          22.9677   73.3789   -0.8958 C.3     1  UNL1        0.1761
     34 O          22.6981   75.3684   -4.4922 O.3     1  UNL1       -0.3775
     35 O          25.0522   75.8025   -2.8637 O.3     1  UNL1       -0.3794
     36 O          23.8224   75.5862   -0.3880 O.3     1  UNL1       -0.3794
     37 O          21.7086   73.9388   -1.2660 O.3     1  UNL1       -0.3258
     38 H          21.7991   75.6385   -4.7240 H       1  UNL1        0.2106
     39 H          25.0355   75.9914   -3.8104 H       1  UNL1        0.2105
     40 H          24.5426   76.2013   -0.5784 H       1  UNL1        0.2105
     41 C          22.9412   73.0048    0.5879 C.3     1  UNL1        0.1693
     42 O          22.0703   73.8955    1.2874 O.3     1  UNL1       -0.3794
     43 H          22.0813   73.6258    2.2161 H       1  UNL1        0.2105
@<TRIPOS>BOND
     1    15    16   ar
     2    15    20   ar
     3    15     6    1
     4    16    17   ar
     5    16    21    2
     6    17    18   ar
     7    17    23    1
     8    18    19   ar
     9    18    22    2
    10    19    20   ar
    11     6     7    1
    12     6    11    1
    13     7     8    1
    14     7     9    1
    15     8    13    1
    16     9    10    1
    17     9    12    1
    18    10    11    1
    19    10     5    1
    20    12    14    1
    21     5     4    1
    22     4     1    1
    23     1     2    2
    24     1     3    1
    25     1    24    1
    26    24    25    1
    27    25    26    2
    28    25    27    1
    29    25    28    1
    30    28    29    1
    31    29    30    1
    32    29    37    1
    33    30    31    1
    34    30    34    1
    35    31    32    1
    36    31    35    1
    37    32    33    1
    38    32    36    1
    39    33    41    1
    40    33    37    1
    41    41    42    1
    42    34    38    1
    43    35    39    1
    44    36    40    1
    45    42    43    1
@<TRIPOS>MOLECULE
GDU
 43 45 0 0 0
SMALL
GASTEIGER

@<TRIPOS>ATOM
      1 P          22.6403   73.1172   -5.5698 P.3     1  UNL1        0.2189
      2 O          23.0227   74.1575   -6.5502 O.2     1  UNL1       -0.5170
      3 O          23.8591   72.8702   -4.5467 O.3     1  UNL1       -0.4371
      4 O          21.3428   73.6011   -4.7518 O.3     1  UNL1       -0.3112
      5 C          21.8055   74.4755   -3.7214 C.3     1  UNL1        0.1811
      6 C          21.5002   73.2490   -0.3555 C.3     1  UNL1        0.2383
      7 C          21.8425   74.7521   -0.1924 C.3     1  UNL1        0.1895
      8 O          21.2547   75.2827    0.9977 O.3     1  UNL1       -0.3779
      9 C          21.1907   75.3727   -1.4554 C.3     1  UNL1        0.1713
     10 C          21.0477   74.1846   -2.4248 C.3     1  UNL1        0.1764
     11 O          21.6115   73.0306   -1.7779 O.3     1  UNL1       -0.3308
     12 O          19.9114   75.9244   -1.1376 O.3     1  UNL1       -0.3794
     13 H          21.5047   76.2163    1.0398 H       1  UNL1        0.2106
     14 H          20.0614   76.6212   -0.4843 H       1  UNL1        0.2105
     15 N          22.4612   72.4172    0.3708 N.ar    1  UNL1       -0.2551
     16 C          22.1054   71.1847    0.7741 C.ar    1  UNL1        0.3323
     17 N          22.9711   70.3984    1.4404 N.ar    1  UNL1       -0.2743
     18 C          24.2115   70.8402    1.7240 C.ar    1  UNL1        0.2626
     19 C          24.5982   72.1386    1.3105 C.ar    1  UNL1        0.0795
     20 C          23.7118   72.9048    0.6400 C.ar    1  UNL1        0.0869
     21 O          20.9901   70.7722    0.5251 O.2     1  UNL1       -0.2464
     22 O          24.9942   70.1310    2.3313 O.2     1  UNL1       -0.2670
     23 H          22.6988   69.5099    1.7202 H       1  UNL1        0.1734
     24 O          22.3068   71.7465   -6.3459 O.3     1  UNL1       -0.2703
     25 P          20.8460   71.9230   -6.9978 P.3     1  UNL1        0.2208
     26 O          20.3772   73.3106   -6.7889 O.2     1  UNL1       -0.5170
     27 O          20.9226   71.6149   -8.5769 O.3     1  UNL1       -0.4371
     28 O          19.8190   70.8980   -6.3016 O.3     1  UNL1       -0.2858
     29 C          18.8653   71.6864   -5.5885 C.3     1  UNL1        0.2704
     30 C          18.6948   71.1250   -4.1760 C.3     1  UNL1        0.1967
     31 C          18.2297   69.6686   -4.2711 C.3     1  UNL1        0.1715
     32 C          16.9763   69.6110   -5.1516 C.3     1  UNL1        0.1694
     33 C          17.2780   70.2860   -6.4919 C.3     1  UNL1        0.1761
     34 O          19.9426   71.1862   -3.4829 O.3     1  UNL1       -0.3775
     35 O          17.9248   69.1757   -2.9648 O.3     1  UNL1       -0.3794
     36 O          15.9027   70.2909   -4.4997 O.3     1  UNL1       -0.3794
     37 O          17.6166   71.6551   -6.2758 O.3     1  UNL1       -0.3258
     38 H          20.1998   72.1178   -3.4531 H       1  UNL1        0.2106
     39 H          18.7355   69.2417   -2.4445 H       1  UNL1        0.2105
     40 H          15.7521   69.8365   -3.6606 H       1  UNL1        0.2105
     41 C          16.0431   70.2035   -7.3919 C.3     1  UNL1        0.1693
     42 O          16.3680   70.6999   -8.6916 O.3     1  UNL1       -0.3794
     43 H          15.5653   70.6300   -9.2266 H       1  UNL1        0.2105
@<TRIPOS>BOND
     1    15    16   ar
     2    15    20   ar
     3    15     6    1
     4    16    17   ar
     5    16    21    2
     6    17    18   ar
     7    17    23    1
     8    18    19   ar
     9    18    22    2
    10    19    20   ar
    11     6     7    1
    12     6    11    1
    13     7     8    1
    14     7     9    1
    15     8    13    1
    16     9    10    1
    17     9    12    1
    18    10    11    1
    19    10     5    1
    20    12    14    1
    21     5     4    1
    22     4     1    1
    23     1     2    2
    24     1     3    1
    25     1    24    1
    26    24    25    1
    27    25    26    2
    28    25    27    1
    29    25    28    1
    30    28    29    1
    31    29    30    1
    32    29    37    1
    33    30    31    1
    34    30    34    1
    35    31    32    1
    36    31    35    1
    37    32    33    1
    38    32    36    1
    39    33    41    1
    40    33    37    1
    41    41    42    1
    42    34    38    1
    43    35    39    1
    44    36    40    1
    45    42    43    1
@<TRIPOS>MOLECULE
GDU
 43 45 0 0 0
SMALL
GASTEIGER

@<TRIPOS>ATOM
      1 P          22.0534   74.5899   -4.3583 P.3     1  UNL1        0.2189
      2 O          23.0385   75.6930   -4.3103 O.2     1  UNL1       -0.5170
      3 O          20.5652   75.1942   -4.2441 O.3     1  UNL1       -0.4371
      4 O          22.2046   73.7950   -5.7483 O.3     1  UNL1       -0.3112
      5 C          22.4249   72.4227   -5.4183 C.3     1  UNL1        0.1811
      6 C          19.3447   70.6819   -6.0579 C.3     1  UNL1        0.2383
      7 C          19.1582   72.0641   -6.7345 C.3     1  UNL1        0.1895
      8 O          18.3062   71.9614   -7.8776 O.3     1  UNL1       -0.3779
      9 C          20.6083   72.4180   -7.1554 C.3     1  UNL1        0.1713
     10 C          21.4871   71.5407   -6.2446 C.3     1  UNL1        0.1764
     11 O          20.6080   70.8104   -5.3716 O.3     1  UNL1       -0.3308
     12 O          20.8224   72.0944   -8.5307 O.3     1  UNL1       -0.3794
     13 H          18.2313   72.8510   -8.2504 H       1  UNL1        0.2106
     14 H          20.2040   72.6315   -9.0444 H       1  UNL1        0.2105
     15 N          18.2643   70.4217   -5.1051 N.ar    1  UNL1       -0.2551
     16 C          17.1528   69.7852   -5.5147 C.ar    1  UNL1        0.3323
     17 N          16.1463   69.5305   -4.6580 N.ar    1  UNL1       -0.2743
     18 C          16.2332   69.9203   -3.3717 C.ar    1  UNL1        0.2626
     19 C          17.3956   70.5968   -2.9274 C.ar    1  UNL1        0.0795
     20 C          18.3919   70.8357   -3.8065 C.ar    1  UNL1        0.0869
     21 O          17.0603   69.4271   -6.6720 O.2     1  UNL1       -0.2464
     22 O          15.3206   69.6945   -2.5966 O.2     1  UNL1       -0.2670
     23 H          15.3532   69.0662   -4.9699 H       1  UNL1        0.1734
     24 O          22.3175   73.5820   -3.1307 O.3     1  UNL1       -0.2703
     25 P          22.8895   74.4676   -1.9147 P.3     1  UNL1        0.2208
     26 O          24.3518   74.6311   -2.0692 O.2     1  UNL1       -0.5170
     27 O          22.1838   75.9153   -1.9272 O.3     1  UNL1       -0.4371
     28 O          22.5753   73.7309   -0.5188 O.3     1  UNL1       -0.2858
     29 C          23.6325   72.7970   -0.2953 C.3     1  UNL1        0.2704
     30 C          23.0556   71.3823   -0.2239 C.3     1  UNL1        0.1967
     31 C          22.0292   71.3192    0.9114 C.3     1  UNL1        0.1715
     32 C          22.6923   71.8190    2.1999 C.3     1  UNL1        0.1694
     33 C          23.2955   73.2025    1.9449 C.3     1  UNL1        0.1761
     34 O          22.4212   71.0610   -1.4631 O.3     1  UNL1       -0.3775
     35 O          21.5895   69.9707    1.0868 O.3     1  UNL1       -0.3794
     36 O          23.7208   70.9089    2.5920 O.3     1  UNL1       -0.3794
     37 O          24.2927   73.1129    0.9282 O.3     1  UNL1       -0.3258
     38 H          23.1010   71.1201   -2.1481 H       1  UNL1        0.2106
     39 H          21.1915   69.6952    0.2513 H       1  UNL1        0.2105
     40 H          23.2971   70.0527    2.7357 H       1  UNL1        0.2105
     41 C          23.9306   73.7258    3.2351 C.3     1  UNL1        0.1693
     42 O          23.2985   73.1114    4.3594 O.3     1  UNL1       -0.3794
     43 H          23.7271   73.4667    5.1502 H       1  UNL1        0.2105
@<TRIPOS>BOND
     1    15    16   ar
     2    15    20   ar
     3    15     6    1
     4    16    17   ar
     5    16    21    2
     6    17    18   ar
     7    17    23    1
     8    18    19   ar
     9    18    22    2
    10    19    20   ar
    11     6     7    1
    12     6    11    1
    13     7     8    1
    14     7     9    1
    15     8    13    1
    16     9    10    1
    17     9    12    1
    18    10    11    1
    19    10     5    1
    20    12    14    1
    21     5     4    1
    22     4     1    1
    23     1     2    2
    24     1     3    1
    25     1    24    1
    26    24    25    1
    27    25    26    2
    28    25    27    1
    29    25    28    1
    30    28    29    1
    31    29    30    1
    32    29    37    1
    33    30    31    1
    34    30    34    1
    35    31    32    1
    36    31    35    1
    37    32    33    1
    38    32    36    1
    39    33    41    1
    40    33    37    1
    41    41    42    1
    42    34    38    1
    43    35    39    1
    44    36    40    1
    45    42    43    1
@<TRIPOS>MOLECULE
GDU
 43 45 0 0 0
SMALL
GASTEIGER

@<TRIPOS>ATOM
      1 P          22.4575   72.6567   -4.8838 P.3     1  UNL1        0.2189
      2 O          22.1263   74.0770   -5.1335 O.2     1  UNL1       -0.5170
      3 O          23.9756   72.5440   -4.3586 O.3     1  UNL1       -0.4371
      4 O          21.4596   72.0599   -3.7725 O.3     1  UNL1       -0.3112
      5 C          21.7070   72.7808   -2.5644 C.3     1  UNL1        0.1811
      6 C          23.2476   71.8294    0.5419 C.3     1  UNL1        0.2383
      7 C          21.8098   72.2551    0.9350 C.3     1  UNL1        0.1895
      8 O          21.3542   71.5213    2.0740 O.3     1  UNL1       -0.3779
      9 C          20.9998   71.8709   -0.3306 C.3     1  UNL1        0.1713
     10 C          22.0596   71.7988   -1.4456 C.3     1  UNL1        0.1764
     11 O          23.3241   72.1571   -0.8618 O.3     1  UNL1       -0.3308
     12 O          20.3650   70.6032   -0.1518 O.3     1  UNL1       -0.3794
     13 H          20.4585   71.8323    2.2659 H       1  UNL1        0.2106
     14 H          19.7588   70.6965    0.5955 H       1  UNL1        0.2105
     15 N          24.2395   72.5899    1.3038 N.ar    1  UNL1       -0.2551
     16 C          24.1718   73.9326    1.3330 C.ar    1  UNL1        0.3323
     17 N          25.0692   74.6553    2.0289 N.ar    1  UNL1       -0.2743
     18 C          26.0608   74.0415    2.7028 C.ar    1  UNL1        0.2626
     19 C          26.1481   72.6280    2.6763 C.ar    1  UNL1        0.0795
     20 C          25.2325   71.9273    1.9740 C.ar    1  UNL1        0.0869
     21 O          23.2826   74.5003    0.7304 O.2     1  UNL1       -0.2464
     22 O          26.8765   74.6951    3.3290 O.2     1  UNL1       -0.2670
     23 H          25.0026   75.6233    2.0425 H       1  UNL1        0.1734
     24 O          22.3009   71.8216   -6.2515 O.3     1  UNL1       -0.2703
     25 P          21.0874   72.4903   -7.0701 P.3     1  UNL1        0.2208
     26 O          21.3866   73.9181   -7.3167 O.2     1  UNL1       -0.5170
     27 O          20.9067   71.7295   -8.4782 O.3     1  UNL1       -0.4371
     28 O          19.7291   72.3653   -6.2160 O.3     1  UNL1       -0.2858
     29 C          19.1581   71.0939   -6.5281 C.3     1  UNL1        0.2704
     30 C          17.7851   71.2964   -7.1707 C.3     1  UNL1        0.1967
     31 C          16.8881   72.0680   -6.1978 C.3     1  UNL1        0.1715
     32 C          16.8769   71.3322   -4.8531 C.3     1  UNL1        0.1694
     33 C          18.3199   71.1287   -4.3850 C.3     1  UNL1        0.1761
     34 O          17.9287   72.0388   -8.3829 O.3     1  UNL1       -0.3775
     35 O          15.5600   72.1371   -6.7211 O.3     1  UNL1       -0.3794
     36 O          16.2362   70.0650   -5.0072 O.3     1  UNL1       -0.3794
     37 O          19.0251   70.3283   -5.3328 O.3     1  UNL1       -0.3258
     38 H          18.5050   71.5204   -8.9609 H       1  UNL1        0.2106
     39 H          15.6169   72.5952   -7.5692 H       1  UNL1        0.2105
     40 H          15.3352   70.2416   -5.3077 H       1  UNL1        0.2105
     41 C          18.3190   70.4249   -3.0261 C.3     1  UNL1        0.1693
     42 O          19.5585   69.7378   -2.8457 O.3     1  UNL1       -0.3794
     43 H          19.5176   69.3095   -1.9795 H       1  UNL1        0.2105
@<TRIPOS>BOND
     1    15    16   ar
     2    15    20   ar
     3    15     6    1
     4    16    17   ar
     5    16    21    2
     6    17    18   ar
     7    17    23    1
     8    18    19   ar
     9    18    22    2
    10    19    20   ar
    11     6     7    1
    12     6    11    1
    13     7     8    1
    14     7     9    1
    15     8    13    1
    16     9    10    1
    17     9    12    1
    18    10    11    1
    19    10     5    1
    20    12    14    1
    21     5     4    1
    22     4     1    1
    23     1     2    2
    24     1     3    1
    25     1    24    1
    26    24    25    1
    27    25    26    2
    28    25    27    1
    29    25    28    1
    30    28    29    1
    31    29    30    1
    32    29    37    1
    33    30    31    1
    34    30    34    1
    35    31    32    1
    36    31    35    1
    37    32    33    1
    38    32    36    1
    39    33    41    1
    40    33    37    1
    41    41    42    1
    42    34    38    1
    43    35    39    1
    44    36    40    1
    45    42    43    1
