@<TRIPOS>MOLECULE
GDU
 43 45 0 0 0
SMALL
GASTEIGER

@<TRIPOS>ATOM
      1 P          20.9087   71.4911   -2.1705 P.3     1  UNL1        0.2189
      2 O          22.1241   70.7799   -2.6250 O.2     1  UNL1       -0.5170
      3 O          21.2257   73.0642   -2.0375 O.3     1  UNL1       -0.4371
      4 O          19.7264   71.2703   -3.2382 O.3     1  UNL1       -0.3112
      5 C          18.5679   70.8818   -2.4984 C.3     1  UNL1        0.1811
      6 C          16.9582   70.5340   -5.6945 C.3     1  UNL1        0.2383
      7 C          16.9660   69.1005   -5.1047 C.3     1  UNL1        0.1895
      8 O          15.8335   68.3560   -5.5592 O.3     1  UNL1       -0.3779
      9 C          16.8720   69.3754   -3.5813 C.3     1  UNL1        0.1713
     10 C          17.3578   70.8292   -3.4327 C.3     1  UNL1        0.1764
     11 O          17.7306   71.2946   -4.7414 O.3     1  UNL1       -0.3308
     12 O          15.5219   69.2436   -3.1322 O.3     1  UNL1       -0.3794
     13 H          15.8980   67.4779   -5.1583 H       1  UNL1        0.2106
     14 H          15.2570   68.3301   -3.3056 H       1  UNL1        0.2105
     15 N          17.5975   70.5559   -7.0112 N.ar    1  UNL1       -0.2551
     16 C          16.8432   70.4616   -8.1204 C.ar    1  UNL1        0.3323
     17 N          17.4058   70.4827   -9.3431 N.ar    1  UNL1       -0.2743
     18 C          18.7420   70.5894   -9.4750 C.ar    1  UNL1        0.2626
     19 C          19.5496   70.6837   -8.3153 C.ar    1  UNL1        0.0795
     20 C          18.9592   70.6643   -7.1014 C.ar    1  UNL1        0.0869
     21 O          15.6365   70.3654   -8.0172 O.2     1  UNL1       -0.2464
     22 O          19.2525   70.6038  -10.5812 O.2     1  UNL1       -0.2670
     23 H          16.8458   70.4180  -10.1330 H       1  UNL1        0.1734
     24 O          20.4545   70.9136   -0.7378 O.3     1  UNL1       -0.2703
     25 P          21.7387   70.9992    0.2283 P.3     1  UNL1        0.2208
     26 O          21.7057   69.8776    1.1928 O.2     1  UNL1       -0.5170
     27 O          23.0820   70.9068   -0.6556 O.3     1  UNL1       -0.4371
     28 O          21.7186   72.3961    1.0273 O.3     1  UNL1       -0.2858
     29 C          21.7914   72.0797    2.4181 C.3     1  UNL1        0.2704
     30 C          21.3729   73.2997    3.2403 C.3     1  UNL1        0.1967
     31 C          22.3009   74.4706    2.9026 C.3     1  UNL1        0.1715
     32 C          23.7522   74.0182    3.0992 C.3     1  UNL1        0.1694
     33 C          23.9909   72.7439    2.2854 C.3     1  UNL1        0.1761
     34 O          20.0241   73.6496    2.9249 O.3     1  UNL1       -0.3775
     35 O          22.0177   75.5726    3.7675 O.3     1  UNL1       -0.3794
     36 O          23.9883   73.7580    4.4836 O.3     1  UNL1       -0.3794
     37 O          23.1270   71.7074    2.7497 O.3     1  UNL1       -0.3258
     38 H          19.4780   72.8830    3.1461 H       1  UNL1        0.2106
     39 H          21.0949   75.8148    3.6192 H       1  UNL1        0.2105
     40 H          23.8208   74.5839    4.9561 H       1  UNL1        0.2105
     41 C          25.4472   72.3025    2.4475 C.3     1  UNL1        0.1693
     42 O          25.5241   70.8782    2.3679 O.3     1  UNL1       -0.3794
     43 H          26.4559   70.6418    2.4737 H       1  UNL1        0.2105
@<TRIPOS>BOND
     1    15    16   ar
     2    15    20   ar
     3    15     6    1
     4    16    17   ar
     5    16    21    2
     6    17    18   ar
     7    17    23    1
     8    18    19   ar
     9    18    22    2
    10    19    20   ar
    11     6     7    1
    12     6    11    1
    13     7     8    1
    14     7     9    1
    15     8    13    1
    16     9    10    1
    17     9    12    1
    18    10    11    1
    19    10     5    1
    20    12    14    1
    21     5     4    1
    22     4     1    1
    23     1     2    2
    24     1     3    1
    25     1    24    1
    26    24    25    1
    27    25    26    2
    28    25    27    1
    29    25    28    1
    30    28    29    1
    31    29    30    1
    32    29    37    1
    33    30    31    1
    34    30    34    1
    35    31    32    1
    36    31    35    1
    37    32    33    1
    38    32    36    1
    39    33    41    1
    40    33    37    1
    41    41    42    1
    42    34    38    1
    43    35    39    1
    44    36    40    1
    45    42    43    1
@<TRIPOS>MOLECULE
GDU
 43 45 0 0 0
SMALL
GASTEIGER

@<TRIPOS>ATOM
      1 P          21.0637   71.1307   -2.8799 P.3     1  UNL1        0.2189
      2 O          21.7100   70.7386   -1.6079 O.2     1  UNL1       -0.5170
      3 O          21.0211   69.8638   -3.8730 O.3     1  UNL1       -0.4371
      4 O          19.5644   71.6341   -2.5877 O.3     1  UNL1       -0.3112
      5 C          18.7536   70.4654   -2.4568 C.3     1  UNL1        0.1811
      6 C          17.0682   70.4652   -5.6327 C.3     1  UNL1        0.2383
      7 C          16.9427   69.0058   -5.1256 C.3     1  UNL1        0.1895
      8 O          15.7351   68.4040   -5.5974 O.3     1  UNL1       -0.3779
      9 C          16.9001   69.1989   -3.5873 C.3     1  UNL1        0.1713
     10 C          17.5300   70.5867   -3.3668 C.3     1  UNL1        0.1764
     11 O          17.9269   71.0891   -4.6545 O.3     1  UNL1       -0.3308
     12 O          15.5506   69.1742   -3.1179 O.3     1  UNL1       -0.3794
     13 H          15.7182   67.5019   -5.2486 H       1  UNL1        0.2106
     14 H          15.1937   68.3029   -3.3373 H       1  UNL1        0.2105
     15 N          17.6861   70.5013   -6.9592 N.ar    1  UNL1       -0.2551
     16 C          16.9112   70.4563   -8.0573 C.ar    1  UNL1        0.3323
     17 N          17.4539   70.4916   -9.2886 N.ar    1  UNL1       -0.2743
     18 C          18.7903   70.5629   -9.4409 C.ar    1  UNL1        0.2626
     19 C          19.6193   70.6051   -8.2932 C.ar    1  UNL1        0.0795
     20 C          19.0487   70.5726   -7.0702 C.ar    1  UNL1        0.0869
     21 O          15.7040   70.3924   -7.9358 O.2     1  UNL1       -0.2464
     22 O          19.2827   70.5900  -10.5550 O.2     1  UNL1       -0.2670
     23 H          16.8793   70.4626  -10.0701 H       1  UNL1        0.1734
     24 O          21.9065   72.3195   -3.5648 O.3     1  UNL1       -0.2703
     25 P          23.4342   72.1414   -3.0911 P.3     1  UNL1        0.2208
     26 O          23.7916   70.7057   -3.1089 O.2     1  UNL1       -0.5170
     27 O          24.4039   72.9477   -4.0930 O.3     1  UNL1       -0.4371
     28 O          23.6055   72.7197   -1.5991 O.3     1  UNL1       -0.2858
     29 C          22.9691   73.9980   -1.5739 C.3     1  UNL1        0.2704
     30 C          23.9655   75.0534   -1.0913 C.3     1  UNL1        0.1967
     31 C          24.4617   74.6686    0.3058 C.3     1  UNL1        0.1715
     32 C          23.2467   74.4543    1.2156 C.3     1  UNL1        0.1694
     33 C          22.3052   73.4421    0.5584 C.3     1  UNL1        0.1761
     34 O          25.0716   75.1153   -1.9935 O.3     1  UNL1       -0.3775
     35 O          25.2786   75.7172    0.8308 O.3     1  UNL1       -0.3794
     36 O          22.5656   75.6956    1.4035 O.3     1  UNL1       -0.3794
     37 O          21.8486   73.9518   -0.6937 O.3     1  UNL1       -0.3258
     38 H          24.7125   75.3529   -2.8593 H       1  UNL1        0.2106
     39 H          26.0209   75.8248    0.2228 H       1  UNL1        0.2105
     40 H          23.1966   76.3018    1.8131 H       1  UNL1        0.2105
     41 C          21.1048   73.1949    1.4749 C.3     1  UNL1        0.1693
     42 O          21.0309   71.8051    1.7971 O.3     1  UNL1       -0.3794
     43 H          20.2637   71.6922    2.3751 H       1  UNL1        0.2105
@<TRIPOS>BOND
     1    15    16   ar
     2    15    20   ar
     3    15     6    1
     4    16    17   ar
     5    16    21    2
     6    17    18   ar
     7    17    23    1
     8    18    19   ar
     9    18    22    2
    10    19    20   ar
    11     6     7    1
    12     6    11    1
    13     7     8    1
    14     7     9    1
    15     8    13    1
    16     9    10    1
    17     9    12    1
    18    10    11    1
    19    10     5    1
    20    12    14    1
    21     5     4    1
    22     4     1    1
    23     1     2    2
    24     1     3    1
    25     1    24    1
    26    24    25    1
    27    25    26    2
    28    25    27    1
    29    25    28    1
    30    28    29    1
    31    29    30    1
    32    29    37    1
    33    30    31    1
    34    30    34    1
    35    31    32    1
    36    31    35    1
    37    32    33    1
    38    32    36    1
    39    33    41    1
    40    33    37    1
    41    41    42    1
    42    34    38    1
    43    35    39    1
    44    36    40    1
    45    42    43    1
@<TRIPOS>MOLECULE
GDU
 43 45 0 0 0
SMALL
GASTEIGER

@<TRIPOS>ATOM
      1 P          20.9674   70.7308   -3.5307 P.3     1  UNL1        0.2189
      2 O          20.5399   69.3864   -3.9772 O.2     1  UNL1       -0.5170
      3 O          21.5611   71.5489   -4.7841 O.3     1  UNL1       -0.4371
      4 O          19.7055   71.5214   -2.9230 O.3     1  UNL1       -0.3112
      5 C          18.7478   70.5355   -2.5339 C.3     1  UNL1        0.1811
      6 C          17.0497   70.4785   -5.7026 C.3     1  UNL1        0.2383
      7 C          16.9468   69.0228   -5.1797 C.3     1  UNL1        0.1895
      8 O          15.7458   68.3993   -5.6402 O.3     1  UNL1       -0.3779
      9 C          16.9077   69.2314   -3.6434 C.3     1  UNL1        0.1713
     10 C          17.5189   70.6302   -3.4400 C.3     1  UNL1        0.1764
     11 O          17.9035   71.1246   -4.7346 O.3     1  UNL1       -0.3308
     12 O          15.5606   69.1928   -3.1681 O.3     1  UNL1       -0.3794
     13 H          15.7430   67.5007   -5.2819 H       1  UNL1        0.2106
     14 H          15.2150   68.3143   -3.3769 H       1  UNL1        0.2105
     15 N          17.6616   70.5092   -7.0320 N.ar    1  UNL1       -0.2551
     16 C          16.8808   70.4790   -8.1264 C.ar    1  UNL1        0.3323
     17 N          17.4181   70.5098   -9.3603 N.ar    1  UNL1       -0.2743
     18 C          18.7546   70.5617   -9.5188 C.ar    1  UNL1        0.2626
     19 C          19.5897   70.5882   -8.3751 C.ar    1  UNL1        0.0795
     20 C          19.0246   70.5607   -7.1494 C.ar    1  UNL1        0.0869
     21 O          15.6735   70.4327   -7.9992 O.2     1  UNL1       -0.2464
     22 O          19.2420   70.5848  -10.6353 O.2     1  UNL1       -0.2670
     23 H          16.8393   70.4916  -10.1390 H       1  UNL1        0.1734
     24 O          22.1048   70.5833   -2.4006 O.3     1  UNL1       -0.2703
     25 P          22.8061   72.0243   -2.2536 P.3     1  UNL1        0.2208
     26 O          24.1002   72.0183   -2.9707 O.2     1  UNL1       -0.5170
     27 O          21.8480   73.1542   -2.8858 O.3     1  UNL1       -0.4371
     28 O          23.0560   72.3444   -0.6963 O.3     1  UNL1       -0.2858
     29 C          23.1402   71.0878   -0.0227 C.3     1  UNL1        0.2704
     30 C          21.9542   70.9412    0.9318 C.3     1  UNL1        0.1967
     31 C          21.9776   72.0965    1.9373 C.3     1  UNL1        0.1715
     32 C          23.3549   72.1335    2.6092 C.3     1  UNL1        0.1694
     33 C          24.4354   72.1918    1.5266 C.3     1  UNL1        0.1761
     34 O          20.7345   70.9763    0.1885 O.3     1  UNL1       -0.3775
     35 O          20.9643   71.8943    2.9247 O.3     1  UNL1       -0.3794
     36 O          23.5305   70.9597    3.4038 O.3     1  UNL1       -0.3794
     37 O          24.3618   71.0242    0.7097 O.3     1  UNL1       -0.3258
     38 H          20.7665   70.2380   -0.4350 H       1  UNL1        0.2106
     39 H          20.1199   71.8658    2.4573 H       1  UNL1        0.2105
     40 H          22.8271   70.9621    4.0660 H       1  UNL1        0.2105
     41 C          25.8138   72.2636    2.1876 C.3     1  UNL1        0.1693
     42 O          26.3487   70.9452    2.3163 O.3     1  UNL1       -0.3794
     43 H          27.2157   71.0346    2.7354 H       1  UNL1        0.2105
@<TRIPOS>BOND
     1    15    16   ar
     2    15    20   ar
     3    15     6    1
     4    16    17   ar
     5    16    21    2
     6    17    18   ar
     7    17    23    1
     8    18    19   ar
     9    18    22    2
    10    19    20   ar
    11     6     7    1
    12     6    11    1
    13     7     8    1
    14     7     9    1
    15     8    13    1
    16     9    10    1
    17     9    12    1
    18    10    11    1
    19    10     5    1
    20    12    14    1
    21     5     4    1
    22     4     1    1
    23     1     2    2
    24     1     3    1
    25     1    24    1
    26    24    25    1
    27    25    26    2
    28    25    27    1
    29    25    28    1
    30    28    29    1
    31    29    30    1
    32    29    37    1
    33    30    31    1
    34    30    34    1
    35    31    32    1
    36    31    35    1
    37    32    33    1
    38    32    36    1
    39    33    41    1
    40    33    37    1
    41    41    42    1
    42    34    38    1
    43    35    39    1
    44    36    40    1
    45    42    43    1
@<TRIPOS>MOLECULE
GDU
 43 45 0 0 0
SMALL
GASTEIGER

@<TRIPOS>ATOM
      1 P          20.7457   71.4504   -2.1540 P.3     1  UNL1        0.2189
      2 O          22.0439   70.9781   -2.6843 O.2     1  UNL1       -0.5170
      3 O          20.8211   73.0361   -1.8843 O.3     1  UNL1       -0.4371
      4 O          19.5846   71.1426   -3.2236 O.3     1  UNL1       -0.3112
      5 C          18.3411   71.2665   -2.5316 C.3     1  UNL1        0.1811
      6 C          16.9227   70.4984   -5.7449 C.3     1  UNL1        0.2383
      7 C          17.1202   69.1185   -5.0669 C.3     1  UNL1        0.1895
      8 O          16.1284   68.1877   -5.5064 O.3     1  UNL1       -0.3779
      9 C          16.9291   69.4632   -3.5669 C.3     1  UNL1        0.1713
     10 C          17.1884   70.9795   -3.4954 C.3     1  UNL1        0.1764
     11 O          17.5374   71.4197   -4.8192 O.3     1  UNL1       -0.3308
     12 O          15.5973   69.1563   -3.1495 O.3     1  UNL1       -0.3794
     13 H          16.3069   67.3537   -5.0499 H       1  UNL1        0.2106
     14 H          15.4772   68.2050   -3.2732 H       1  UNL1        0.2105
     15 N          17.6011   70.5403   -7.0414 N.ar    1  UNL1       -0.2551
     16 C          16.8762   70.5309   -8.1739 C.ar    1  UNL1        0.3323
     17 N          17.4751   70.5723   -9.3787 N.ar    1  UNL1       -0.2743
     18 C          18.8183   70.6141   -9.4692 C.ar    1  UNL1        0.2626
     19 C          19.5950   70.6187   -8.2847 C.ar    1  UNL1        0.0795
     20 C          18.9686   70.5809   -7.0894 C.ar    1  UNL1        0.0869
     21 O          15.6636   70.4939   -8.1081 O.2     1  UNL1       -0.2464
     22 O          19.3615   70.6468  -10.5593 O.2     1  UNL1       -0.2670
     23 H          16.9362   70.5692  -10.1857 H       1  UNL1        0.1734
     24 O          20.4215   70.6875   -0.7736 O.3     1  UNL1       -0.2703
     25 P          21.5083   71.1881    0.3026 P.3     1  UNL1        0.2208
     26 O          21.8337   70.0796    1.2270 O.2     1  UNL1       -0.5170
     27 O          22.8451   71.6573   -0.4635 O.3     1  UNL1       -0.4371
     28 O          20.9075   72.4257    1.1377 O.3     1  UNL1       -0.2858
     29 C          22.0034   73.2866    1.4501 C.3     1  UNL1        0.2704
     30 C          22.3137   73.1939    2.9449 C.3     1  UNL1        0.1967
     31 C          21.0669   73.5958    3.7388 C.3     1  UNL1        0.1715
     32 C          20.5999   74.9728    3.2538 C.3     1  UNL1        0.1694
     33 C          20.4175   74.9299    1.7346 C.3     1  UNL1        0.1761
     34 O          22.6817   71.8535    3.2751 O.3     1  UNL1       -0.3775
     35 O          21.3832   73.6564    5.1312 O.3     1  UNL1       -0.3794
     36 O          21.5776   75.9565    3.5949 O.3     1  UNL1       -0.3794
     37 O          21.6637   74.6285    1.1085 O.3     1  UNL1       -0.3258
     38 H          23.4643   71.6413    2.7483 H       1  UNL1        0.2106
     39 H          21.6824   72.7753    5.3888 H       1  UNL1        0.2105
     40 H          21.6633   75.9441    4.5571 H       1  UNL1        0.2105
     41 C          19.9181   76.2908    1.2439 C.3     1  UNL1        0.1693
     42 O          18.9469   76.0978    0.2141 O.3     1  UNL1       -0.3794
     43 H          18.6579   76.9771   -0.0663 H       1  UNL1        0.2105
@<TRIPOS>BOND
     1    15    16   ar
     2    15    20   ar
     3    15     6    1
     4    16    17   ar
     5    16    21    2
     6    17    18   ar
     7    17    23    1
     8    18    19   ar
     9    18    22    2
    10    19    20   ar
    11     6     7    1
    12     6    11    1
    13     7     8    1
    14     7     9    1
    15     8    13    1
    16     9    10    1
    17     9    12    1
    18    10    11    1
    19    10     5    1
    20    12    14    1
    21     5     4    1
    22     4     1    1
    23     1     2    2
    24     1     3    1
    25     1    24    1
    26    24    25    1
    27    25    26    2
    28    25    27    1
    29    25    28    1
    30    28    29    1
    31    29    30    1
    32    29    37    1
    33    30    31    1
    34    30    34    1
    35    31    32    1
    36    31    35    1
    37    32    33    1
    38    32    36    1
    39    33    41    1
    40    33    37    1
    41    41    42    1
    42    34    38    1
    43    35    39    1
    44    36    40    1
    45    42    43    1
@<TRIPOS>MOLECULE
GDU
 43 45 0 0 0
SMALL
GASTEIGER

@<TRIPOS>ATOM
      1 P          23.2354   73.3899   -4.0174 P.3     1  UNL1        0.2189
      2 O          24.4853   72.5980   -4.0153 O.2     1  UNL1       -0.5170
      3 O          23.3693   74.6067   -2.9712 O.3     1  UNL1       -0.4371
      4 O          22.9736   73.9763   -5.4920 O.3     1  UNL1       -0.3112
      5 C          22.8563   72.8546   -6.3686 C.3     1  UNL1        0.1811
      6 C          19.4161   72.2367   -7.2118 C.3     1  UNL1        0.2383
      7 C          19.3827   73.5375   -6.3693 C.3     1  UNL1        0.1895
      8 O          18.3037   74.3817   -6.7772 O.3     1  UNL1       -0.3779
      9 C          20.7504   74.1827   -6.7134 C.3     1  UNL1        0.1713
     10 C          21.6002   73.0062   -7.2284 C.3     1  UNL1        0.1764
     11 O          20.7953   71.8184   -7.1311 O.3     1  UNL1       -0.3308
     12 O          20.5928   75.1766   -7.7278 O.3     1  UNL1       -0.3794
     13 H          18.3387   75.1694   -6.2167 H       1  UNL1        0.2106
     14 H          20.0052   75.8543   -7.3671 H       1  UNL1        0.2105
     15 N          18.5346   71.2217   -6.6327 N.ar    1  UNL1       -0.2551
     16 C          17.5388   70.7027   -7.3726 C.ar    1  UNL1        0.3323
     17 N          16.7164   69.7656   -6.8652 N.ar    1  UNL1       -0.2743
     18 C          16.8729   69.3378   -5.5977 C.ar    1  UNL1        0.2626
     19 C          17.9138   69.8798   -4.8047 C.ar    1  UNL1        0.0795
     20 C          18.7270   70.8153   -5.3397 C.ar    1  UNL1        0.0869
     21 O          17.3857   71.0783   -8.5178 O.2     1  UNL1       -0.2464
     22 O          16.1260   68.4931   -5.1360 O.2     1  UNL1       -0.2670
     23 H          16.0057   69.3988   -7.4149 H       1  UNL1        0.1734
     24 O          22.0032   72.4470   -3.5869 O.3     1  UNL1       -0.2703
     25 P          22.6068   71.2930   -2.6414 P.3     1  UNL1        0.2208
     26 O          21.7215   70.1083   -2.6831 O.2     1  UNL1       -0.5170
     27 O          24.0744   70.8842   -3.1643 O.3     1  UNL1       -0.4371
     28 O          22.7088   71.8351   -1.1296 O.3     1  UNL1       -0.2858
     29 C          21.8569   71.0094   -0.3344 C.3     1  UNL1        0.2704
     30 C          20.6080   71.7987    0.0615 C.3     1  UNL1        0.1967
     31 C          21.0333   73.0466    0.8414 C.3     1  UNL1        0.1715
     32 C          21.9285   72.6141    2.0080 C.3     1  UNL1        0.1694
     33 C          23.0792   71.7640    1.4637 C.3     1  UNL1        0.1761
     34 O          19.8947   72.1869   -1.1139 O.3     1  UNL1       -0.3775
     35 O          19.8752   73.7162    1.3444 O.3     1  UNL1       -0.3794
     36 O          21.1626   71.8495    2.9401 O.3     1  UNL1       -0.3794
     37 O          22.5579   70.5938    0.8354 O.3     1  UNL1       -0.3258
     38 H          19.6537   71.3724   -1.5758 H       1  UNL1        0.2106
     39 H          19.3377   73.9584    0.5797 H       1  UNL1        0.2105
     40 H          20.4485   72.4210    3.2510 H       1  UNL1        0.2105
     41 C          23.9987   71.3552    2.6167 C.3     1  UNL1        0.1693
     42 O          24.6215   70.1069    2.3086 O.3     1  UNL1       -0.3794
     43 H          25.1915   69.8859    3.0580 H       1  UNL1        0.2105
@<TRIPOS>BOND
     1    15    16   ar
     2    15    20   ar
     3    15     6    1
     4    16    17   ar
     5    16    21    2
     6    17    18   ar
     7    17    23    1
     8    18    19   ar
     9    18    22    2
    10    19    20   ar
    11     6     7    1
    12     6    11    1
    13     7     8    1
    14     7     9    1
    15     8    13    1
    16     9    10    1
    17     9    12    1
    18    10    11    1
    19    10     5    1
    20    12    14    1
    21     5     4    1
    22     4     1    1
    23     1     2    2
    24     1     3    1
    25     1    24    1
    26    24    25    1
    27    25    26    2
    28    25    27    1
    29    25    28    1
    30    28    29    1
    31    29    30    1
    32    29    37    1
    33    30    31    1
    34    30    34    1
    35    31    32    1
    36    31    35    1
    37    32    33    1
    38    32    36    1
    39    33    41    1
    40    33    37    1
    41    41    42    1
    42    34    38    1
    43    35    39    1
    44    36    40    1
    45    42    43    1
@<TRIPOS>MOLECULE
GDU
 43 45 0 0 0
SMALL
GASTEIGER

@<TRIPOS>ATOM
      1 P          15.9159   70.4541   -2.3655 P.3     1  UNL1        0.2189
      2 O          15.7107   69.2097   -3.1394 O.2     1  UNL1       -0.5170
      3 O          15.5611   71.7248   -3.2887 O.3     1  UNL1       -0.4371
      4 O          14.9594   70.4464   -1.0725 O.3     1  UNL1       -0.3112
      5 C          14.7039   69.0773   -0.7550 C.3     1  UNL1        0.1811
      6 C          12.0048   67.9270    1.3232 C.3     1  UNL1        0.2383
      7 C          12.2921   69.3670    1.8202 C.3     1  UNL1        0.1895
      8 O          11.1007   69.9830    2.3145 O.3     1  UNL1       -0.3779
      9 C          12.7800   70.0664    0.5249 C.3     1  UNL1        0.1713
     10 C          13.2307   68.9051   -0.3806 C.3     1  UNL1        0.1764
     11 O          13.0548   67.6864    0.3624 O.3     1  UNL1       -0.3308
     12 O          11.7118   70.7967   -0.0813 O.3     1  UNL1       -0.3794
     13 H          11.3470   70.8717    2.6068 H       1  UNL1        0.2106
     14 H          11.4350   71.4689    0.5560 H       1  UNL1        0.2105
     15 N          12.0883   66.9712    2.4287 N.ar    1  UNL1       -0.2551
     16 C          13.2908   66.5374    2.8459 C.ar    1  UNL1        0.3323
     17 N          13.3955   65.6614    3.8625 N.ar    1  UNL1       -0.2743
     18 C          12.2901   65.1953    4.4749 C.ar    1  UNL1        0.2626
     19 C          11.0164   65.6390    4.0424 C.ar    1  UNL1        0.0795
     20 C          10.9402   66.5211    3.0234 C.ar    1  UNL1        0.0869
     21 O          14.2969   66.9494    2.3034 O.2     1  UNL1       -0.2464
     22 O          12.3836   64.3987    5.3921 O.2     1  UNL1       -0.2670
     23 H          14.2717   65.3624    4.1533 H       1  UNL1        0.1734
     24 O          17.4535   70.5459   -1.8966 O.3     1  UNL1       -0.2703
     25 P          18.3470   69.9948   -3.1165 P.3     1  UNL1        0.2208
     26 O          19.7775   70.0457   -2.7421 O.2     1  UNL1       -0.5170
     27 O          17.9315   68.4729   -3.4410 O.3     1  UNL1       -0.4371
     28 O          18.0994   70.9067   -4.4192 O.3     1  UNL1       -0.2858
     29 C          18.7793   70.2738   -5.5041 C.3     1  UNL1        0.2704
     30 C          19.8184   71.2348   -6.0839 C.3     1  UNL1        0.1967
     31 C          19.1104   72.5077   -6.5581 C.3     1  UNL1        0.1715
     32 C          17.9812   72.1124   -7.5164 C.3     1  UNL1        0.1694
     33 C          17.0797   71.0855   -6.8266 C.3     1  UNL1        0.1761
     34 O          20.7781   71.5654   -5.0785 O.3     1  UNL1       -0.3775
     35 O          20.0437   73.3526   -7.2346 O.3     1  UNL1       -0.3794
     36 O          18.5382   71.5456   -8.7032 O.3     1  UNL1       -0.3794
     37 O          17.8351   69.9169   -6.5109 O.3     1  UNL1       -0.3258
     38 H          21.1928   70.7359   -4.8051 H       1  UNL1        0.2106
     39 H          20.7396   73.5654   -6.6000 H       1  UNL1        0.2105
     40 H          19.1012   72.2233   -9.0995 H       1  UNL1        0.2105
     41 C          15.9289   70.7095   -7.7626 C.3     1  UNL1        0.1693
     42 O          15.6259   71.8171   -8.6125 O.3     1  UNL1       -0.3794
     43 H          14.8981   71.5393   -9.1856 H       1  UNL1        0.2105
@<TRIPOS>BOND
     1    15    16   ar
     2    15    20   ar
     3    15     6    1
     4    16    17   ar
     5    16    21    2
     6    17    18   ar
     7    17    23    1
     8    18    19   ar
     9    18    22    2
    10    19    20   ar
    11     6     7    1
    12     6    11    1
    13     7     8    1
    14     7     9    1
    15     8    13    1
    16     9    10    1
    17     9    12    1
    18    10    11    1
    19    10     5    1
    20    12    14    1
    21     5     4    1
    22     4     1    1
    23     1     2    2
    24     1     3    1
    25     1    24    1
    26    24    25    1
    27    25    26    2
    28    25    27    1
    29    25    28    1
    30    28    29    1
    31    29    30    1
    32    29    37    1
    33    30    31    1
    34    30    34    1
    35    31    32    1
    36    31    35    1
    37    32    33    1
    38    32    36    1
    39    33    41    1
    40    33    37    1
    41    41    42    1
    42    34    38    1
    43    35    39    1
    44    36    40    1
    45    42    43    1
@<TRIPOS>MOLECULE
GDU
 43 45 0 0 0
SMALL
GASTEIGER

@<TRIPOS>ATOM
      1 P          20.7185   71.2699   -1.0865 P.3     1  UNL1        0.2189
      2 O          20.8836   72.7332   -0.9417 O.2     1  UNL1       -0.5170
      3 O          21.1322   70.5445    0.2903 O.3     1  UNL1       -0.4371
      4 O          19.1835   70.9340   -1.4298 O.3     1  UNL1       -0.3112
      5 C          19.1890   70.1439   -2.6198 C.3     1  UNL1        0.1811
      6 C          17.3540   70.4687   -5.6947 C.3     1  UNL1        0.2383
      7 C          17.0306   69.0363   -5.1980 C.3     1  UNL1        0.1895
      8 O          15.7202   68.6383   -5.6074 O.3     1  UNL1       -0.3779
      9 C          17.1023   69.2026   -3.6577 C.3     1  UNL1        0.1713
     10 C          17.9516   70.4715   -3.4574 C.3     1  UNL1        0.1764
     11 O          18.3513   70.9323   -4.7598 O.3     1  UNL1       -0.3308
     12 O          15.7930   69.3776   -3.1127 O.3     1  UNL1       -0.3794
     13 H          15.5821   67.7428   -5.2685 H       1  UNL1        0.2106
     14 H          15.2934   68.5767   -3.3214 H       1  UNL1        0.2105
     15 N          17.8970   70.4354   -7.0537 N.ar    1  UNL1       -0.2551
     16 C          17.0603   70.4419   -8.1064 C.ar    1  UNL1        0.3323
     17 N          17.5337   70.4154   -9.3662 N.ar    1  UNL1       -0.2743
     18 C          18.8607   70.3717   -9.5931 C.ar    1  UNL1        0.2626
     19 C          19.7538   70.3585   -8.4938 C.ar    1  UNL1        0.0795
     20 C          19.2523   70.3901   -7.2408 C.ar    1  UNL1        0.0869
     21 O          15.8608   70.4817   -7.9174 O.2     1  UNL1       -0.2464
     22 O          19.2900   70.3429  -10.7330 O.2     1  UNL1       -0.2670
     23 H          16.9155   70.4250  -10.1141 H       1  UNL1        0.1734
     24 O          21.6645   70.7392   -2.2764 O.3     1  UNL1       -0.2703
     25 P          23.0737   71.5022   -2.1278 P.3     1  UNL1        0.2208
     26 O          23.4423   71.5826   -0.6972 O.2     1  UNL1       -0.5170
     27 O          24.2104   70.6902   -2.9295 O.3     1  UNL1       -0.4371
     28 O          22.9477   72.9873   -2.7349 O.3     1  UNL1       -0.2858
     29 C          24.0553   73.1699   -3.6179 C.3     1  UNL1        0.2704
     30 C          24.4625   74.6441   -3.6258 C.3     1  UNL1        0.1967
     31 C          23.2669   75.4893   -4.0759 C.3     1  UNL1        0.1715
     32 C          22.7594   74.9457   -5.4162 C.3     1  UNL1        0.1694
     33 C          22.4793   73.4478   -5.2718 C.3     1  UNL1        0.1761
     34 O          24.8610   75.0376   -2.3114 O.3     1  UNL1       -0.3775
     35 O          23.6724   76.8511   -4.2299 O.3     1  UNL1       -0.3794
     36 O          23.7501   75.1565   -6.4233 O.3     1  UNL1       -0.3794
     37 O          23.6844   72.7631   -4.9331 O.3     1  UNL1       -0.3258
     38 H          25.6092   74.4762   -2.0669 H       1  UNL1        0.2106
     39 H          23.9941   77.1464   -3.3688 H       1  UNL1        0.2105
     40 H          23.8980   76.1098   -6.4751 H       1  UNL1        0.2105
     41 C          21.9392   72.9017   -6.5956 C.3     1  UNL1        0.1693
     42 O          23.0309   72.4995   -7.4247 O.3     1  UNL1       -0.3794
     43 H          22.6487   72.1617   -8.2463 H       1  UNL1        0.2105
@<TRIPOS>BOND
     1    15    16   ar
     2    15    20   ar
     3    15     6    1
     4    16    17   ar
     5    16    21    2
     6    17    18   ar
     7    17    23    1
     8    18    19   ar
     9    18    22    2
    10    19    20   ar
    11     6     7    1
    12     6    11    1
    13     7     8    1
    14     7     9    1
    15     8    13    1
    16     9    10    1
    17     9    12    1
    18    10    11    1
    19    10     5    1
    20    12    14    1
    21     5     4    1
    22     4     1    1
    23     1     2    2
    24     1     3    1
    25     1    24    1
    26    24    25    1
    27    25    26    2
    28    25    27    1
    29    25    28    1
    30    28    29    1
    31    29    30    1
    32    29    37    1
    33    30    31    1
    34    30    34    1
    35    31    32    1
    36    31    35    1
    37    32    33    1
    38    32    36    1
    39    33    41    1
    40    33    37    1
    41    41    42    1
    42    34    38    1
    43    35    39    1
    44    36    40    1
    45    42    43    1
@<TRIPOS>MOLECULE
GDU
 43 45 0 0 0
SMALL
GASTEIGER

@<TRIPOS>ATOM
      1 P          20.7236   71.6170   -1.3467 P.3     1  UNL1        0.2189
      2 O          20.6487   70.4034   -0.5034 O.2     1  UNL1       -0.5170
      3 O          21.9293   71.4629   -2.4029 O.3     1  UNL1       -0.4371
      4 O          19.3369   71.8066   -2.1392 O.3     1  UNL1       -0.3112
      5 C          18.8771   70.4997   -2.4871 C.3     1  UNL1        0.1811
      6 C          17.1283   70.4498   -5.6282 C.3     1  UNL1        0.2383
      7 C          17.0009   69.0021   -5.0889 C.3     1  UNL1        0.1895
      8 O          15.7791   68.4014   -5.5243 O.3     1  UNL1       -0.3779
      9 C          16.9908   69.2268   -3.5544 C.3     1  UNL1        0.1713
     10 C          17.6365   70.6133   -3.3749 C.3     1  UNL1        0.1764
     11 O          18.0116   71.0859   -4.6803 O.3     1  UNL1       -0.3308
     12 O          15.6509   69.2234   -3.0578 O.3     1  UNL1       -0.3794
     13 H          15.7617   67.5067   -5.1567 H       1  UNL1        0.2106
     14 H          15.2824   68.3509   -3.2522 H       1  UNL1        0.2105
     15 N          17.7197   70.4535   -6.9673 N.ar    1  UNL1       -0.2551
     16 C          16.9210   70.4477   -8.0491 C.ar    1  UNL1        0.3323
     17 N          17.4393   70.4545   -9.2913 N.ar    1  UNL1       -0.2743
     18 C          18.7741   70.4573   -9.4712 C.ar    1  UNL1        0.2626
     19 C          19.6278   70.4577   -8.3409 C.ar    1  UNL1        0.0795
     20 C          19.0816   70.4551   -7.1064 C.ar    1  UNL1        0.0869
     21 O          15.7149   70.4456   -7.9026 O.2     1  UNL1       -0.2464
     22 O          19.2442   70.4587  -10.5953 O.2     1  UNL1       -0.2670
     23 H          16.8479   70.4545  -10.0608 H       1  UNL1        0.1734
     24 O          20.9902   72.9020   -0.4139 O.3     1  UNL1       -0.2703
     25 P          21.8106   72.3843    0.8702 P.3     1  UNL1        0.2208
     26 O          21.0115   71.3674    1.5888 O.2     1  UNL1       -0.5170
     27 O          23.2024   71.7311    0.3899 O.3     1  UNL1       -0.4371
     28 O          22.1114   73.6237    1.8517 O.3     1  UNL1       -0.2858
     29 C          20.8594   74.0243    2.4100 C.3     1  UNL1        0.2704
     30 C          20.6397   75.5154    2.1501 C.3     1  UNL1        0.1967
     31 C          21.7906   76.3062    2.7799 C.3     1  UNL1        0.1715
     32 C          21.9058   75.9115    4.2566 C.3     1  UNL1        0.1694
     33 C          22.0315   74.3893    4.3567 C.3     1  UNL1        0.1761
     34 O          20.6060   75.7560    0.7422 O.3     1  UNL1       -0.3775
     35 O          21.5254   77.7065    2.6740 O.3     1  UNL1       -0.3794
     36 O          20.7413   76.3468    4.9598 O.3     1  UNL1       -0.3794
     37 O          20.8648   73.7732    3.8134 O.3     1  UNL1       -0.3258
     38 H          19.8733   75.2342    0.3875 H       1  UNL1        0.2106
     39 H          21.4492   77.9065    1.7325 H       1  UNL1        0.2105
     40 H          20.6998   77.3073    4.8650 H       1  UNL1        0.2105
     41 C          22.1817   73.9871    5.8256 C.3     1  UNL1        0.1693
     42 O          22.3879   72.5762    5.9135 O.3     1  UNL1       -0.3794
     43 H          22.4783   72.3645    6.8529 H       1  UNL1        0.2105
@<TRIPOS>BOND
     1    15    16   ar
     2    15    20   ar
     3    15     6    1
     4    16    17   ar
     5    16    21    2
     6    17    18   ar
     7    17    23    1
     8    18    19   ar
     9    18    22    2
    10    19    20   ar
    11     6     7    1
    12     6    11    1
    13     7     8    1
    14     7     9    1
    15     8    13    1
    16     9    10    1
    17     9    12    1
    18    10    11    1
    19    10     5    1
    20    12    14    1
    21     5     4    1
    22     4     1    1
    23     1     2    2
    24     1     3    1
    25     1    24    1
    26    24    25    1
    27    25    26    2
    28    25    27    1
    29    25    28    1
    30    28    29    1
    31    29    30    1
    32    29    37    1
    33    30    31    1
    34    30    34    1
    35    31    32    1
    36    31    35    1
    37    32    33    1
    38    32    36    1
    39    33    41    1
    40    33    37    1
    41    41    42    1
    42    34    38    1
    43    35    39    1
    44    36    40    1
    45    42    43    1
@<TRIPOS>MOLECULE
GDU
 43 45 0 0 0
SMALL
GASTEIGER

@<TRIPOS>ATOM
      1 P          22.4772   71.7168   -3.1739 P.3     1  UNL1        0.2189
      2 O          23.6574   70.9701   -2.6849 O.2     1  UNL1       -0.5170
      3 O          22.9170   72.6813   -4.3861 O.3     1  UNL1       -0.4371
      4 O          21.3619   70.6797   -3.6910 O.3     1  UNL1       -0.3112
      5 C          20.3904   70.5639   -2.6501 C.3     1  UNL1        0.1811
      6 C          17.9690   70.5902   -5.3078 C.3     1  UNL1        0.2383
      7 C          17.8774   69.1621   -4.7121 C.3     1  UNL1        0.1895
      8 O          16.5529   68.6401   -4.8403 O.3     1  UNL1       -0.3779
      9 C          18.2333   69.4078   -3.2228 C.3     1  UNL1        0.1713
     10 C          18.9892   70.7495   -3.2351 C.3     1  UNL1        0.1764
     11 O          19.0844   71.1776   -4.6047 O.3     1  UNL1       -0.3308
     12 O          17.0453   69.5025   -2.4343 O.3     1  UNL1       -0.3794
     13 H          16.5637   67.7538   -4.4528 H       1  UNL1        0.2106
     14 H          16.5877   68.6546   -2.5144 H       1  UNL1        0.2105
     15 N          18.2370   70.5354   -6.7459 N.ar    1  UNL1       -0.2551
     16 C          17.2116   70.4676   -7.6132 C.ar    1  UNL1        0.3323
     17 N          17.4306   70.4197   -8.9405 N.ar    1  UNL1       -0.2743
     18 C          18.6881   70.4291   -9.4230 C.ar    1  UNL1        0.2626
     19 C          19.7782   70.4944   -8.5209 C.ar    1  UNL1        0.0795
     20 C          19.5302   70.5458   -7.1949 C.ar    1  UNL1        0.0869
     21 O          16.0717   70.4589   -7.1929 O.2     1  UNL1       -0.2464
     22 O          18.8874   70.3810  -10.6240 O.2     1  UNL1       -0.2670
     23 H          16.6785   70.3754   -9.5522 H       1  UNL1        0.1734
     24 O          21.8713   72.6054   -1.9757 O.3     1  UNL1       -0.2703
     25 P          23.0553   72.8165   -0.9064 P.3     1  UNL1        0.2208
     26 O          23.7017   71.5160   -0.6233 O.2     1  UNL1       -0.5170
     27 O          24.1460   73.8374   -1.5083 O.3     1  UNL1       -0.4371
     28 O          22.4485   73.4229    0.4552 O.3     1  UNL1       -0.2858
     29 C          21.3824   72.5605    0.8546 C.3     1  UNL1        0.2704
     30 C          20.0941   73.3735    0.9920 C.3     1  UNL1        0.1967
     31 C          20.3113   74.4806    2.0281 C.3     1  UNL1        0.1715
     32 C          20.8224   73.8441    3.3255 C.3     1  UNL1        0.1694
     33 C          22.0576   72.9964    3.0111 C.3     1  UNL1        0.1761
     34 O          19.7585   73.9553   -0.2691 O.3     1  UNL1       -0.3775
     35 O          19.0761   75.1555    2.2757 O.3     1  UNL1       -0.3794
     36 O          19.8011   73.0190    3.8876 O.3     1  UNL1       -0.3794
     37 O          21.7070   71.9532    2.1029 O.3     1  UNL1       -0.3258
     38 H          19.6383   73.2242   -0.8904 H       1  UNL1        0.2106
     39 H          18.7873   75.5285    1.4333 H       1  UNL1        0.2105
     40 H          19.0435   73.5920    4.0634 H       1  UNL1        0.2105
     41 C          22.5964   72.3836    4.3057 C.3     1  UNL1        0.1693
     42 O          22.0301   73.0653    5.4262 O.3     1  UNL1       -0.3794
     43 H          22.3938   72.6494    6.2200 H       1  UNL1        0.2105
@<TRIPOS>BOND
     1    15    16   ar
     2    15    20   ar
     3    15     6    1
     4    16    17   ar
     5    16    21    2
     6    17    18   ar
     7    17    23    1
     8    18    19   ar
     9    18    22    2
    10    19    20   ar
    11     6     7    1
    12     6    11    1
    13     7     8    1
    14     7     9    1
    15     8    13    1
    16     9    10    1
    17     9    12    1
    18    10    11    1
    19    10     5    1
    20    12    14    1
    21     5     4    1
    22     4     1    1
    23     1     2    2
    24     1     3    1
    25     1    24    1
    26    24    25    1
    27    25    26    2
    28    25    27    1
    29    25    28    1
    30    28    29    1
    31    29    30    1
    32    29    37    1
    33    30    31    1
    34    30    34    1
    35    31    32    1
    36    31    35    1
    37    32    33    1
    38    32    36    1
    39    33    41    1
    40    33    37    1
    41    41    42    1
    42    34    38    1
    43    35    39    1
    44    36    40    1
    45    42    43    1
@<TRIPOS>MOLECULE
GDU
 43 45 0 0 0
SMALL
GASTEIGER

@<TRIPOS>ATOM
      1 P          22.5667   71.6008   -2.7392 P.3     1  UNL1        0.2189
      2 O          22.4199   71.3371   -1.2906 O.2     1  UNL1       -0.5170
      3 O          23.9819   71.0256   -3.2486 O.3     1  UNL1       -0.4371
      4 O          21.3740   70.8780   -3.5403 O.3     1  UNL1       -0.3112
      5 C          20.3721   70.5443   -2.5783 C.3     1  UNL1        0.1811
      6 C          17.9846   70.6512   -5.2645 C.3     1  UNL1        0.2383
      7 C          17.8322   69.2299   -4.6648 C.3     1  UNL1        0.1895
      8 O          16.4905   68.7577   -4.8067 O.3     1  UNL1       -0.3779
      9 C          18.1797   69.4681   -3.1722 C.3     1  UNL1        0.1713
     10 C          18.9858   70.7802   -3.1804 C.3     1  UNL1        0.1764
     11 O          19.1130   71.1990   -4.5503 O.3     1  UNL1       -0.3308
     12 O          16.9871   69.6106   -2.3981 O.3     1  UNL1       -0.3794
     13 H          16.4634   67.8732   -4.4159 H       1  UNL1        0.2106
     14 H          16.4987   68.7803   -2.4805 H       1  UNL1        0.2105
     15 N          18.2670   70.5805   -6.6990 N.ar    1  UNL1       -0.2551
     16 C          17.2506   70.5760   -7.5794 C.ar    1  UNL1        0.3323
     17 N          17.4831   70.5153   -8.9038 N.ar    1  UNL1       -0.2743
     18 C          18.7449   70.4476   -9.3703 C.ar    1  UNL1        0.2626
     19 C          19.8253   70.4456   -8.4544 C.ar    1  UNL1        0.0795
     20 C          19.5641   70.5117   -7.1316 C.ar    1  UNL1        0.0869
     21 O          16.1070   70.6371   -7.1736 O.2     1  UNL1       -0.2464
     22 O          18.9562   70.3877  -10.5687 O.2     1  UNL1       -0.2670
     23 H          16.7376   70.5174   -9.5251 H       1  UNL1        0.1734
     24 O          22.5077   73.1880   -3.0035 O.3     1  UNL1       -0.2703
     25 P          23.3534   73.4697   -4.3434 P.3     1  UNL1        0.2208
     26 O          24.7775   73.6689   -3.9950 O.2     1  UNL1       -0.5170
     27 O          23.2160   72.2111   -5.3390 O.3     1  UNL1       -0.4371
     28 O          22.7876   74.7903   -5.0687 O.3     1  UNL1       -0.2858
     29 C          22.5394   74.4414   -6.4312 C.3     1  UNL1        0.2704
     30 C          23.0841   75.5400   -7.3454 C.3     1  UNL1        0.1967
     31 C          22.4015   76.8653   -6.9936 C.3     1  UNL1        0.1715
     32 C          20.8829   76.6642   -7.0487 C.3     1  UNL1        0.1694
     33 C          20.5048   75.4806   -6.1547 C.3     1  UNL1        0.1761
     34 O          24.4952   75.6622   -7.1585 O.3     1  UNL1       -0.3775
     35 O          22.7896   77.8696   -7.9334 O.3     1  UNL1       -0.3794
     36 O          20.4846   76.3991   -8.3945 O.3     1  UNL1       -0.3794
     37 O          21.1360   74.2942   -6.6342 O.3     1  UNL1       -0.3258
     38 H          24.8818   74.8052   -7.3841 H       1  UNL1        0.2106
     39 H          23.7496   77.9536   -7.8727 H       1  UNL1        0.2105
     40 H          20.7470   77.1659   -8.9203 H       1  UNL1        0.2105
     41 C          18.9862   75.2926   -6.1757 C.3     1  UNL1        0.1693
     42 O          18.6809   73.9079   -6.3502 O.3     1  UNL1       -0.3794
     43 H          17.7167   73.8326   -6.3572 H       1  UNL1        0.2105
@<TRIPOS>BOND
     1    15    16   ar
     2    15    20   ar
     3    15     6    1
     4    16    17   ar
     5    16    21    2
     6    17    18   ar
     7    17    23    1
     8    18    19   ar
     9    18    22    2
    10    19    20   ar
    11     6     7    1
    12     6    11    1
    13     7     8    1
    14     7     9    1
    15     8    13    1
    16     9    10    1
    17     9    12    1
    18    10    11    1
    19    10     5    1
    20    12    14    1
    21     5     4    1
    22     4     1    1
    23     1     2    2
    24     1     3    1
    25     1    24    1
    26    24    25    1
    27    25    26    2
    28    25    27    1
    29    25    28    1
    30    28    29    1
    31    29    30    1
    32    29    37    1
    33    30    31    1
    34    30    34    1
    35    31    32    1
    36    31    35    1
    37    32    33    1
    38    32    36    1
    39    33    41    1
    40    33    37    1
    41    41    42    1
    42    34    38    1
    43    35    39    1
    44    36    40    1
    45    42    43    1
@<TRIPOS>MOLECULE
GDU
 43 45 0 0 0
SMALL
GASTEIGER

@<TRIPOS>ATOM
      1 P          16.3993   69.7103   -2.8988 P.3     1  UNL1        0.2189
      2 O          16.2521   69.0675   -4.2234 O.2     1  UNL1       -0.5170
      3 O          15.6654   71.1435   -2.9134 O.3     1  UNL1       -0.4371
      4 O          15.7317   68.7770   -1.7718 O.3     1  UNL1       -0.3112
      5 C          15.0830   69.6482   -0.8441 C.3     1  UNL1        0.1811
      6 C          12.2563   68.1119    0.7611 C.3     1  UNL1        0.2383
      7 C          12.2432   69.5766    1.2684 C.3     1  UNL1        0.1895
      8 O          10.9081   70.0118    1.5356 O.3     1  UNL1       -0.3779
      9 C          12.8440   70.3437    0.0618 C.3     1  UNL1        0.1713
     10 C          13.6073   69.2630   -0.7262 C.3     1  UNL1        0.1764
     11 O          13.4811   68.0293    0.0019 O.3     1  UNL1       -0.3308
     12 O          11.8042   70.9134   -0.7359 O.3     1  UNL1       -0.3794
     13 H          10.9697   70.9259    1.8463 H       1  UNL1        0.2106
     14 H          11.3271   71.5362   -0.1710 H       1  UNL1        0.2105
     15 N          12.2821   67.1747    1.8853 N.ar    1  UNL1       -0.2551
     16 C          13.4587   66.8214    2.4322 C.ar    1  UNL1        0.3323
     17 N          13.5099   65.9643    3.4688 N.ar    1  UNL1       -0.2743
     18 C          12.3771   65.4362    3.9710 C.ar    1  UNL1        0.2626
     19 C          11.1309   65.7947    3.4013 C.ar    1  UNL1        0.0795
     20 C          11.1079   66.6598    2.3651 C.ar    1  UNL1        0.0869
     21 O          14.4889   67.2899    1.9901 O.2     1  UNL1       -0.2464
     22 O          12.4228   64.6566    4.9062 O.2     1  UNL1       -0.2670
     23 H          14.3675   65.7237    3.8539 H       1  UNL1        0.1734
     24 O          17.9629   69.9129   -2.5725 O.3     1  UNL1       -0.2703
     25 P          18.5412   70.9332   -3.6746 P.3     1  UNL1        0.2208
     26 O          18.1741   72.3180   -3.3051 O.2     1  UNL1       -0.5170
     27 O          20.1453   70.8024   -3.7374 O.3     1  UNL1       -0.4371
     28 O          17.9183   70.5781   -5.1154 O.3     1  UNL1       -0.2858
     29 C          17.8174   71.8060   -5.8379 C.3     1  UNL1        0.2704
     30 C          16.5487   71.7914   -6.6920 C.3     1  UNL1        0.1967
     31 C          16.6090   70.6011   -7.6542 C.3     1  UNL1        0.1715
     32 C          17.9233   70.6721   -8.4398 C.3     1  UNL1        0.1694
     33 C          19.0888   70.7696   -7.4522 C.3     1  UNL1        0.1761
     34 O          15.4038   71.6676   -5.8463 O.3     1  UNL1       -0.3775
     35 O          15.5032   70.6576   -8.5577 O.3     1  UNL1       -0.3794
     36 O          17.9117   71.8215   -9.2876 O.3     1  UNL1       -0.3794
     37 O          18.9620   71.9588   -6.6740 O.3     1  UNL1       -0.3258
     38 H          15.4102   72.4321   -5.2543 H       1  UNL1        0.2106
     39 H          14.7012   70.6222   -8.0211 H       1  UNL1        0.2105
     40 H          17.1606   71.7198   -9.8866 H       1  UNL1        0.2105
     41 C          20.4088   70.8066   -8.2258 C.3     1  UNL1        0.1693
     42 O          21.2040   69.6764   -7.8634 O.3     1  UNL1       -0.3794
     43 H          22.0243   69.7368   -8.3721 H       1  UNL1        0.2105
@<TRIPOS>BOND
     1    15    16   ar
     2    15    20   ar
     3    15     6    1
     4    16    17   ar
     5    16    21    2
     6    17    18   ar
     7    17    23    1
     8    18    19   ar
     9    18    22    2
    10    19    20   ar
    11     6     7    1
    12     6    11    1
    13     7     8    1
    14     7     9    1
    15     8    13    1
    16     9    10    1
    17     9    12    1
    18    10    11    1
    19    10     5    1
    20    12    14    1
    21     5     4    1
    22     4     1    1
    23     1     2    2
    24     1     3    1
    25     1    24    1
    26    24    25    1
    27    25    26    2
    28    25    27    1
    29    25    28    1
    30    28    29    1
    31    29    30    1
    32    29    37    1
    33    30    31    1
    34    30    34    1
    35    31    32    1
    36    31    35    1
    37    32    33    1
    38    32    36    1
    39    33    41    1
    40    33    37    1
    41    41    42    1
    42    34    38    1
    43    35    39    1
    44    36    40    1
    45    42    43    1
@<TRIPOS>MOLECULE
GDU
 43 45 0 0 0
SMALL
GASTEIGER

@<TRIPOS>ATOM
      1 P          21.5567   71.4608   -0.7406 P.3     1  UNL1        0.2189
      2 O          20.8614   70.4647    0.1043 O.2     1  UNL1       -0.5170
      3 O          20.8749   72.9055   -0.5383 O.3     1  UNL1       -0.4371
      4 O          23.1068   71.5351   -0.3180 O.3     1  UNL1       -0.3112
      5 C          23.1903   71.0739    1.0314 C.3     1  UNL1        0.1811
      6 C          25.3624   73.1869    2.9665 C.3     1  UNL1        0.2383
      7 C          25.2708   73.8841    1.5850 C.3     1  UNL1        0.1895
      8 O          25.3993   75.3014    1.7196 O.3     1  UNL1       -0.3779
      9 C          23.8416   73.4999    1.1213 C.3     1  UNL1        0.1713
     10 C          23.4999   72.2521    1.9567 C.3     1  UNL1        0.1764
     11 O          24.6487   71.9483    2.7667 O.3     1  UNL1       -0.3308
     12 O          22.9249   74.5609    1.3967 O.3     1  UNL1       -0.3794
     13 H          25.3343   75.6731    0.8288 H       1  UNL1        0.2106
     14 H          23.2254   75.3288    0.8919 H       1  UNL1        0.2105
     15 N          26.7579   72.9263    3.3236 N.ar    1  UNL1       -0.2551
     16 C          27.3399   71.7753    2.9431 C.ar    1  UNL1        0.3323
     17 N          28.6226   71.5127    3.2555 N.ar    1  UNL1       -0.2743
     18 C          29.3445   72.3998    3.9668 C.ar    1  UNL1        0.2626
     19 C          28.7429   73.6140    4.3794 C.ar    1  UNL1        0.0795
     20 C          27.4562   73.8540    4.0489 C.ar    1  UNL1        0.0869
     21 O          26.7014   70.9656    2.3006 O.2     1  UNL1       -0.2464
     22 O          30.5042   72.1609    4.2541 O.2     1  UNL1       -0.2670
     23 H          29.0278   70.6788    2.9690 H       1  UNL1        0.1734
     24 O          21.4409   71.0261   -2.2866 O.3     1  UNL1       -0.2703
     25 P          19.8715   70.9603   -2.6365 P.3     1  UNL1        0.2208
     26 O          19.2213   69.9316   -1.7950 O.2     1  UNL1       -0.5170
     27 O          19.1969   72.3941   -2.3474 O.3     1  UNL1       -0.4371
     28 O          19.6821   70.5829   -4.1895 O.3     1  UNL1       -0.2858
     29 C          19.1979   71.7555   -4.8454 C.3     1  UNL1        0.2704
     30 C          18.3776   71.3511   -6.0714 C.3     1  UNL1        0.1967
     31 C          19.2624   70.5301   -7.0146 C.3     1  UNL1        0.1715
     32 C          20.5336   71.3319   -7.3158 C.3     1  UNL1        0.1694
     33 C          21.1919   71.7363   -5.9944 C.3     1  UNL1        0.1761
     34 O          17.2569   70.5663   -5.6598 O.3     1  UNL1       -0.3775
     35 O          18.5567   70.2699   -8.2298 O.3     1  UNL1       -0.3794
     36 O          20.1954   72.5005   -8.0640 O.3     1  UNL1       -0.3794
     37 O          20.3018   72.5636   -5.2466 O.3     1  UNL1       -0.3258
     38 H          16.7333   71.1189   -5.0637 H       1  UNL1        0.2106
     39 H          17.7618   69.7763   -7.9916 H       1  UNL1        0.2105
     40 H          19.7800   72.1985   -8.8823 H       1  UNL1        0.2105
     41 C          22.4811   72.5083   -6.2840 C.3     1  UNL1        0.1693
     42 O          23.3838   72.3548   -5.1875 O.3     1  UNL1       -0.3794
     43 H          24.1815   72.8545   -5.4096 H       1  UNL1        0.2105
@<TRIPOS>BOND
     1    15    16   ar
     2    15    20   ar
     3    15     6    1
     4    16    17   ar
     5    16    21    2
     6    17    18   ar
     7    17    23    1
     8    18    19   ar
     9    18    22    2
    10    19    20   ar
    11     6     7    1
    12     6    11    1
    13     7     8    1
    14     7     9    1
    15     8    13    1
    16     9    10    1
    17     9    12    1
    18    10    11    1
    19    10     5    1
    20    12    14    1
    21     5     4    1
    22     4     1    1
    23     1     2    2
    24     1     3    1
    25     1    24    1
    26    24    25    1
    27    25    26    2
    28    25    27    1
    29    25    28    1
    30    28    29    1
    31    29    30    1
    32    29    37    1
    33    30    31    1
    34    30    34    1
    35    31    32    1
    36    31    35    1
    37    32    33    1
    38    32    36    1
    39    33    41    1
    40    33    37    1
    41    41    42    1
    42    34    38    1
    43    35    39    1
    44    36    40    1
    45    42    43    1
@<TRIPOS>MOLECULE
GDU
 43 45 0 0 0
SMALL
GASTEIGER

@<TRIPOS>ATOM
      1 P          22.8620   71.4944   -2.6418 P.3     1  UNL1        0.2189
      2 O          22.8720   72.9509   -2.3811 O.2     1  UNL1       -0.5170
      3 O          24.2983   71.0414   -3.2117 O.3     1  UNL1       -0.4371
      4 O          22.5544   70.7060   -1.2741 O.3     1  UNL1       -0.3112
      5 C          21.2888   71.1721   -0.8035 C.3     1  UNL1        0.1811
      6 C          23.0076   72.0042    2.2429 C.3     1  UNL1        0.2383
      7 C          22.5102   73.3653    1.6925 C.3     1  UNL1        0.1895
      8 O          22.2353   74.2768    2.7588 O.3     1  UNL1       -0.3779
      9 C          21.2045   72.9617    0.9594 C.3     1  UNL1        0.1713
     10 C          21.3731   71.4535    0.6978 C.3     1  UNL1        0.1764
     11 O          22.6678   71.0723    1.1943 O.3     1  UNL1       -0.3308
     12 O          20.0684   73.2083    1.7903 O.3     1  UNL1       -0.3794
     13 H          21.9319   75.0998    2.3509 H       1  UNL1        0.2106
     14 H          20.0513   74.1587    1.9666 H       1  UNL1        0.2105
     15 N          24.4550   72.0310    2.4600 N.ar    1  UNL1       -0.2551
     16 C          25.1730   70.9041    2.3091 C.ar    1  UNL1        0.3323
     17 N          26.5055   70.9024    2.4993 N.ar    1  UNL1       -0.2743
     18 C          27.1430   72.0342    2.8555 C.ar    1  UNL1        0.2626
     19 C          26.3988   73.2276    3.0236 C.ar    1  UNL1        0.0795
     20 C          25.0641   73.2023    2.8224 C.ar    1  UNL1        0.0869
     21 O          24.6119   69.8755    1.9877 O.2     1  UNL1       -0.2464
     22 O          28.3485   72.0326    3.0325 O.2     1  UNL1       -0.2670
     23 H          27.0085   70.0808    2.3819 H       1  UNL1        0.1734
     24 O          21.7233   71.1524   -3.7276 O.3     1  UNL1       -0.2703
     25 P          21.7291   72.3499   -4.8028 P.3     1  UNL1        0.2208
     26 O          21.4357   73.6284   -4.1184 O.2     1  UNL1       -0.5170
     27 O          23.1775   72.4360   -5.5020 O.3     1  UNL1       -0.4371
     28 O          20.6090   72.0710   -5.9243 O.3     1  UNL1       -0.2858
     29 C          20.1621   70.7272   -5.7393 C.3     1  UNL1        0.2704
     30 C          20.0392   70.0396   -7.1000 C.3     1  UNL1        0.1967
     31 C          19.0500   70.8240   -7.9675 C.3     1  UNL1        0.1715
     32 C          17.7358   70.9790   -7.1939 C.3     1  UNL1        0.1694
     33 C          18.0334   71.5977   -5.8259 C.3     1  UNL1        0.1761
     34 O          21.3173   70.0086   -7.7377 O.3     1  UNL1       -0.3775
     35 O          18.8123   70.1149   -9.1853 O.3     1  UNL1       -0.3794
     36 O          17.1283   69.6978   -7.0223 O.3     1  UNL1       -0.3794
     37 O          18.8955   70.7354   -5.0849 O.3     1  UNL1       -0.3258
     38 H          21.9080   69.5126   -7.1546 H       1  UNL1        0.2106
     39 H          19.6647   70.0307   -9.6310 H       1  UNL1        0.2105
     40 H          16.9648   69.3449   -7.9067 H       1  UNL1        0.2105
     41 C          16.7232   71.7886   -5.0584 C.3     1  UNL1        0.1693
     42 O          15.6340   71.8363   -5.9816 O.3     1  UNL1       -0.3794
     43 H          14.8292   71.9564   -5.4590 H       1  UNL1        0.2105
@<TRIPOS>BOND
     1    15    16   ar
     2    15    20   ar
     3    15     6    1
     4    16    17   ar
     5    16    21    2
     6    17    18   ar
     7    17    23    1
     8    18    19   ar
     9    18    22    2
    10    19    20   ar
    11     6     7    1
    12     6    11    1
    13     7     8    1
    14     7     9    1
    15     8    13    1
    16     9    10    1
    17     9    12    1
    18    10    11    1
    19    10     5    1
    20    12    14    1
    21     5     4    1
    22     4     1    1
    23     1     2    2
    24     1     3    1
    25     1    24    1
    26    24    25    1
    27    25    26    2
    28    25    27    1
    29    25    28    1
    30    28    29    1
    31    29    30    1
    32    29    37    1
    33    30    31    1
    34    30    34    1
    35    31    32    1
    36    31    35    1
    37    32    33    1
    38    32    36    1
    39    33    41    1
    40    33    37    1
    41    41    42    1
    42    34    38    1
    43    35    39    1
    44    36    40    1
    45    42    43    1
@<TRIPOS>MOLECULE
GDU
 43 45 0 0 0
SMALL
GASTEIGER

@<TRIPOS>ATOM
      1 P          22.9091   71.8739   -0.8310 P.3     1  UNL1        0.2189
      2 O          24.1175   71.0484   -0.6125 O.2     1  UNL1       -0.5170
      3 O          21.6758   70.9223   -1.2390 O.3     1  UNL1       -0.4371
      4 O          22.5497   72.6682    0.5205 O.3     1  UNL1       -0.3112
      5 C          23.4765   72.2315    1.5160 C.3     1  UNL1        0.1811
      6 C          22.7464   73.1028    4.9271 C.3     1  UNL1        0.2383
      7 C          21.7012   73.8869    4.0930 C.3     1  UNL1        0.1895
      8 O          20.4856   74.0545    4.8261 O.3     1  UNL1       -0.3779
      9 C          21.4882   72.9500    2.8755 C.3     1  UNL1        0.1713
     10 C          22.7524   72.0710    2.8540 C.3     1  UNL1        0.1764
     11 O          23.6030   72.5135    3.9258 O.3     1  UNL1       -0.3308
     12 O          20.3180   72.1507    3.0589 O.3     1  UNL1       -0.3794
     13 H          19.8808   74.5475    4.2542 H       1  UNL1        0.2106
     14 H          19.5700   72.7599    3.1239 H       1  UNL1        0.2105
     15 N          23.5075   74.0094    5.7882 N.ar    1  UNL1       -0.2551
     16 C          23.0119   74.3634    6.9871 C.ar    1  UNL1        0.3323
     17 N          23.6932   75.1928    7.7994 N.ar    1  UNL1       -0.2743
     18 C          24.8846   75.6917    7.4176 C.ar    1  UNL1        0.2626
     19 C          25.4163   75.3321    6.1550 C.ar    1  UNL1        0.0795
     20 C          24.7142   74.4953    5.3617 C.ar    1  UNL1        0.0869
     21 O          21.9387   73.9210    7.3454 O.2     1  UNL1       -0.2464
     22 O          25.4998   76.4463    8.1502 O.2     1  UNL1       -0.2670
     23 H          23.3225   75.4343    8.6631 H       1  UNL1        0.1734
     24 O          23.1872   72.9274   -2.0164 O.3     1  UNL1       -0.2703
     25 P          23.4535   72.0685   -3.3511 P.3     1  UNL1        0.2208
     26 O          24.2454   72.8745   -4.3063 O.2     1  UNL1       -0.5170
     27 O          24.2676   70.7308   -2.9746 O.3     1  UNL1       -0.4371
     28 O          22.0468   71.6681   -4.0225 O.3     1  UNL1       -0.2858
     29 C          21.4717   72.8725   -4.5307 C.3     1  UNL1        0.2704
     30 C          20.0545   73.0327   -3.9782 C.3     1  UNL1        0.1967
     31 C          19.2180   71.8177   -4.3914 C.3     1  UNL1        0.1715
     32 C          19.3104   71.6535   -5.9126 C.3     1  UNL1        0.1694
     33 C          20.7853   71.5959   -6.3183 C.3     1  UNL1        0.1761
     34 O          20.1033   73.1198   -2.5530 O.3     1  UNL1       -0.3775
     35 O          17.8558   72.0205   -4.0098 O.3     1  UNL1       -0.3794
     36 O          18.6769   72.7624   -6.5522 O.3     1  UNL1       -0.3794
     37 O          21.4325   72.8145   -5.9547 O.3     1  UNL1       -0.3258
     38 H          20.6444   73.8921   -2.3391 H       1  UNL1        0.2106
     39 H          17.8472   72.1305   -3.0505 H       1  UNL1        0.2105
     40 H          17.7548   72.7624   -6.2639 H       1  UNL1        0.2105
     41 C          20.8886   71.3976   -7.8322 C.3     1  UNL1        0.1693
     42 O          21.7437   72.3993   -8.3858 O.3     1  UNL1       -0.3794
     43 H          21.7825   72.2387   -9.3387 H       1  UNL1        0.2105
@<TRIPOS>BOND
     1    15    16   ar
     2    15    20   ar
     3    15     6    1
     4    16    17   ar
     5    16    21    2
     6    17    18   ar
     7    17    23    1
     8    18    19   ar
     9    18    22    2
    10    19    20   ar
    11     6     7    1
    12     6    11    1
    13     7     8    1
    14     7     9    1
    15     8    13    1
    16     9    10    1
    17     9    12    1
    18    10    11    1
    19    10     5    1
    20    12    14    1
    21     5     4    1
    22     4     1    1
    23     1     2    2
    24     1     3    1
    25     1    24    1
    26    24    25    1
    27    25    26    2
    28    25    27    1
    29    25    28    1
    30    28    29    1
    31    29    30    1
    32    29    37    1
    33    30    31    1
    34    30    34    1
    35    31    32    1
    36    31    35    1
    37    32    33    1
    38    32    36    1
    39    33    41    1
    40    33    37    1
    41    41    42    1
    42    34    38    1
    43    35    39    1
    44    36    40    1
    45    42    43    1
@<TRIPOS>MOLECULE
GDU
 43 45 0 0 0
SMALL
GASTEIGER

@<TRIPOS>ATOM
      1 P          15.8466   70.3792   -2.3018 P.3     1  UNL1        0.2189
      2 O          15.8182   69.0889   -3.0256 O.2     1  UNL1       -0.5170
      3 O          15.4353   71.5677   -3.3075 O.3     1  UNL1       -0.4371
      4 O          14.8072   70.3301   -1.0755 O.3     1  UNL1       -0.3112
      5 C          14.6637   68.9568   -0.7095 C.3     1  UNL1        0.1811
      6 C          11.4187   67.6271    0.0840 C.3     1  UNL1        0.2383
      7 C          12.4153   66.6478    0.7554 C.3     1  UNL1        0.1895
      8 O          11.8498   66.0749    1.9366 O.3     1  UNL1       -0.3779
      9 C          13.6018   67.5825    1.1075 C.3     1  UNL1        0.1713
     10 C          13.4208   68.7878    0.1663 C.3     1  UNL1        0.1764
     11 O          12.2740   68.5210   -0.6595 O.3     1  UNL1       -0.3308
     12 O          13.5271   67.9912    2.4747 O.3     1  UNL1       -0.3794
     13 H          12.5168   65.4783    2.3040 H       1  UNL1        0.2106
     14 H          13.5869   67.1887    3.0106 H       1  UNL1        0.2105
     15 N          10.5151   66.9096   -0.8169 N.ar    1  UNL1       -0.2551
     16 C           9.2981   67.4160   -1.0830 C.ar    1  UNL1        0.3323
     17 N           8.4495   66.7780   -1.9105 N.ar    1  UNL1       -0.2743
     18 C           8.8046   65.6105   -2.4806 C.ar    1  UNL1        0.2626
     19 C          10.0811   65.0622   -2.2049 C.ar    1  UNL1        0.0795
     20 C          10.9143   65.7249   -1.3747 C.ar    1  UNL1        0.0869
     21 O           8.9639   68.4685   -0.5765 O.2     1  UNL1       -0.2464
     22 O           8.0353   65.0299   -3.2260 O.2     1  UNL1       -0.2670
     23 H           7.5767   67.1601   -2.0947 H       1  UNL1        0.1734
     24 O          17.3313   70.6447   -1.7383 O.3     1  UNL1       -0.2703
     25 P          18.3568   70.1872   -2.8912 P.3     1  UNL1        0.2208
     26 O          19.7448   70.4374   -2.4441 O.2     1  UNL1       -0.5170
     27 O          18.1641   68.6158   -3.1877 O.3     1  UNL1       -0.4371
     28 O          18.0651   71.0251   -4.2339 O.3     1  UNL1       -0.2858
     29 C          18.8028   70.3973   -5.2833 C.3     1  UNL1        0.2704
     30 C          19.7971   71.3974   -5.8754 C.3     1  UNL1        0.1967
     31 C          19.0276   72.6108   -6.4063 C.3     1  UNL1        0.1715
     32 C          17.9434   72.1193   -7.3720 C.3     1  UNL1        0.1694
     33 C          17.0878   71.0651   -6.6651 C.3     1  UNL1        0.1761
     34 O          20.7149   71.8160   -4.8637 O.3     1  UNL1       -0.3775
     35 O          19.9250   73.4856   -7.0931 O.3     1  UNL1       -0.3794
     36 O          18.5569   71.5470   -8.5279 O.3     1  UNL1       -0.3794
     37 O          17.9021   69.9533   -6.2953 O.3     1  UNL1       -0.3258
     38 H          21.1706   71.0213   -4.5543 H       1  UNL1        0.2106
     39 H          20.5940   73.7592   -6.4529 H       1  UNL1        0.2105
     40 H          19.0883   72.2428   -8.9362 H       1  UNL1        0.2105
     41 C          15.9804   70.5924   -7.6096 C.3     1  UNL1        0.1693
     42 O          15.6953   71.6202   -8.5601 O.3     1  UNL1       -0.3794
     43 H          14.9948   71.2829   -9.1353 H       1  UNL1        0.2105
@<TRIPOS>BOND
     1    15    16   ar
     2    15    20   ar
     3    15     6    1
     4    16    17   ar
     5    16    21    2
     6    17    18   ar
     7    17    23    1
     8    18    19   ar
     9    18    22    2
    10    19    20   ar
    11     6     7    1
    12     6    11    1
    13     7     8    1
    14     7     9    1
    15     8    13    1
    16     9    10    1
    17     9    12    1
    18    10    11    1
    19    10     5    1
    20    12    14    1
    21     5     4    1
    22     4     1    1
    23     1     2    2
    24     1     3    1
    25     1    24    1
    26    24    25    1
    27    25    26    2
    28    25    27    1
    29    25    28    1
    30    28    29    1
    31    29    30    1
    32    29    37    1
    33    30    31    1
    34    30    34    1
    35    31    32    1
    36    31    35    1
    37    32    33    1
    38    32    36    1
    39    33    41    1
    40    33    37    1
    41    41    42    1
    42    34    38    1
    43    35    39    1
    44    36    40    1
    45    42    43    1
@<TRIPOS>MOLECULE
GDU
 43 45 0 0 0
SMALL
GASTEIGER

@<TRIPOS>ATOM
      1 P          23.4748   72.1898   -3.3745 P.3     1  UNL1        0.2189
      2 O          24.2621   72.8525   -4.4378 O.2     1  UNL1       -0.5170
      3 O          24.1960   70.8136   -2.9515 O.3     1  UNL1       -0.4371
      4 O          23.3771   73.1597   -2.0951 O.3     1  UNL1       -0.3112
      5 C          22.3382   72.6424   -1.2622 C.3     1  UNL1        0.1811
      6 C          24.3301   71.8156    1.6147 C.3     1  UNL1        0.2383
      7 C          22.9036   72.0367    2.1796 C.3     1  UNL1        0.1895
      8 O          22.6777   71.2176    3.3291 O.3     1  UNL1       -0.3779
      9 C          22.0111   71.5848    0.9944 C.3     1  UNL1        0.1713
     10 C          22.9381   71.6845   -0.2313 C.3     1  UNL1        0.1764
     11 O          24.2044   72.1899    0.2263 O.3     1  UNL1       -0.3308
     12 O          21.5682   70.2400    1.1870 O.3     1  UNL1       -0.3794
     13 H          21.7772   71.4021    3.6304 H       1  UNL1        0.2106
     14 H          21.0436   70.2314    1.9991 H       1  UNL1        0.2105
     15 N          25.2965   72.6786    2.2960 N.ar    1  UNL1       -0.2551
     16 C          26.4805   72.1751    2.6870 C.ar    1  UNL1        0.3323
     17 N          27.3881   72.9480    3.3122 N.ar    1  UNL1       -0.2743
     18 C          27.1188   74.2430    3.5661 C.ar    1  UNL1        0.2626
     19 C          25.8733   74.7856    3.1651 C.ar    1  UNL1        0.0795
     20 C          24.9829   73.9893    2.5361 C.ar    1  UNL1        0.0869
     21 O          26.7378   71.0087    2.4645 O.2     1  UNL1       -0.2464
     22 O          27.9377   74.9422    4.1362 O.2     1  UNL1       -0.2670
     23 H          28.2393   72.5690    3.5836 H       1  UNL1        0.1734
     24 O          21.9947   71.8720   -3.9229 O.3     1  UNL1       -0.2703
     25 P          21.7774   72.7809   -5.2331 P.3     1  UNL1        0.2208
     26 O          21.8303   74.2105   -4.8557 O.2     1  UNL1       -0.5170
     27 O          22.9389   72.4655   -6.3034 O.3     1  UNL1       -0.4371
     28 O          20.3439   72.4498   -5.8855 O.3     1  UNL1       -0.2858
     29 C          20.3881   71.0885   -6.3152 C.3     1  UNL1        0.2704
     30 C          20.0180   71.0102   -7.7972 C.3     1  UNL1        0.1967
     31 C          18.6152   71.5937   -7.9923 C.3     1  UNL1        0.1715
     32 C          17.6501   70.8783   -7.0403 C.3     1  UNL1        0.1694
     33 C          18.1993   70.9684   -5.6143 C.3     1  UNL1        0.1761
     34 O          20.9608   71.7592   -8.5662 O.3     1  UNL1       -0.3775
     35 O          18.1960   71.3944   -9.3440 O.3     1  UNL1       -0.3794
     36 O          17.5278   69.5081   -7.4246 O.3     1  UNL1       -0.3794
     37 O          19.4677   70.3187   -5.5451 O.3     1  UNL1       -0.3258
     38 H          21.8281   71.3623   -8.4077 H       1  UNL1        0.2106
     39 H          18.8360   71.8497   -9.9055 H       1  UNL1        0.2105
     40 H          17.1853   69.5003   -8.3279 H       1  UNL1        0.2105
     41 C          17.2256   70.2865   -4.6506 C.3     1  UNL1        0.1693
     42 O          15.9450   70.9127   -4.7463 O.3     1  UNL1       -0.3794
     43 H          15.3622   70.4543   -4.1254 H       1  UNL1        0.2105
@<TRIPOS>BOND
     1    15    16   ar
     2    15    20   ar
     3    15     6    1
     4    16    17   ar
     5    16    21    2
     6    17    18   ar
     7    17    23    1
     8    18    19   ar
     9    18    22    2
    10    19    20   ar
    11     6     7    1
    12     6    11    1
    13     7     8    1
    14     7     9    1
    15     8    13    1
    16     9    10    1
    17     9    12    1
    18    10    11    1
    19    10     5    1
    20    12    14    1
    21     5     4    1
    22     4     1    1
    23     1     2    2
    24     1     3    1
    25     1    24    1
    26    24    25    1
    27    25    26    2
    28    25    27    1
    29    25    28    1
    30    28    29    1
    31    29    30    1
    32    29    37    1
    33    30    31    1
    34    30    34    1
    35    31    32    1
    36    31    35    1
    37    32    33    1
    38    32    36    1
    39    33    41    1
    40    33    37    1
    41    41    42    1
    42    34    38    1
    43    35    39    1
    44    36    40    1
    45    42    43    1
@<TRIPOS>MOLECULE
GDU
 43 45 0 0 0
SMALL
GASTEIGER

@<TRIPOS>ATOM
      1 P          19.8049   71.0703   -1.9648 P.3     1  UNL1        0.2189
      2 O          20.3716   70.6157   -0.6757 O.2     1  UNL1       -0.5170
      3 O          20.4444   70.2089   -3.1656 O.3     1  UNL1       -0.4371
      4 O          18.2092   70.8691   -1.9506 O.3     1  UNL1       -0.3112
      5 C          17.6554   71.8961   -2.7746 C.3     1  UNL1        0.1811
      6 C          16.6997   70.4895   -5.9425 C.3     1  UNL1        0.2383
      7 C          17.0818   69.2648   -5.0723 C.3     1  UNL1        0.1895
      8 O          16.3200   68.1150   -5.4476 O.3     1  UNL1       -0.3779
      9 C          16.6950   69.7442   -3.6490 C.3     1  UNL1        0.1713
     10 C          16.6669   71.2795   -3.7660 C.3     1  UNL1        0.1764
     11 O          17.0496   71.6161   -5.1107 O.3     1  UNL1       -0.3308
     12 O          15.4087   69.2399   -3.2844 O.3     1  UNL1       -0.3794
     13 H          16.6045   67.3918   -4.8715 H       1  UNL1        0.2106
     14 H          15.4752   68.2754   -3.2860 H       1  UNL1        0.2105
     15 N          17.4748   70.5046   -7.1842 N.ar    1  UNL1       -0.2551
     16 C          16.8377   70.5535   -8.3674 C.ar    1  UNL1        0.3323
     17 N          17.5267   70.5720   -9.5236 N.ar    1  UNL1       -0.2743
     18 C          18.8730   70.5317   -9.5135 C.ar    1  UNL1        0.2626
     19 C          19.5574   70.4743   -8.2747 C.ar    1  UNL1        0.0795
     20 C          18.8420   70.4611   -7.1300 C.ar    1  UNL1        0.0869
     21 O          15.6236   70.5907   -8.3924 O.2     1  UNL1       -0.2464
     22 O          19.4975   70.5436  -10.5596 O.2     1  UNL1       -0.2670
     23 H          17.0507   70.6117  -10.3683 H       1  UNL1        0.1734
     24 O          20.1488   72.6282   -2.1814 O.3     1  UNL1       -0.2703
     25 P          20.3785   73.2629   -0.7205 P.3     1  UNL1        0.2208
     26 O          21.0223   74.5883   -0.8544 O.2     1  UNL1       -0.5170
     27 O          18.9586   73.4291    0.0215 O.3     1  UNL1       -0.4371
     28 O          21.3245   72.2908    0.1455 O.3     1  UNL1       -0.2858
     29 C          22.5453   72.9957    0.3744 C.3     1  UNL1        0.2704
     30 C          23.7160   72.0121    0.3365 C.3     1  UNL1        0.1967
     31 C          23.5013   70.9399    1.4092 C.3     1  UNL1        0.1715
     32 C          23.2757   71.6337    2.7573 C.3     1  UNL1        0.1694
     33 C          22.1362   72.6453    2.6119 C.3     1  UNL1        0.1761
     34 O          23.7825   71.3965   -0.9511 O.3     1  UNL1       -0.3775
     35 O          24.6549   70.0998    1.4860 O.3     1  UNL1       -0.3794
     36 O          24.4711   72.3071    3.1541 O.3     1  UNL1       -0.3794
     37 O          22.4914   73.6351    1.6475 O.3     1  UNL1       -0.3258
     38 H          23.9106   72.1074   -1.5939 H       1  UNL1        0.2106
     39 H          24.7648   69.6951    0.6163 H       1  UNL1        0.2105
     40 H          25.1603   71.6341    3.2273 H       1  UNL1        0.2105
     41 C          21.8797   73.3195    3.9616 C.3     1  UNL1        0.1693
     42 O          22.3291   72.4638    5.0136 O.3     1  UNL1       -0.3794
     43 H          22.1505   72.9247    5.8448 H       1  UNL1        0.2105
@<TRIPOS>BOND
     1    15    16   ar
     2    15    20   ar
     3    15     6    1
     4    16    17   ar
     5    16    21    2
     6    17    18   ar
     7    17    23    1
     8    18    19   ar
     9    18    22    2
    10    19    20   ar
    11     6     7    1
    12     6    11    1
    13     7     8    1
    14     7     9    1
    15     8    13    1
    16     9    10    1
    17     9    12    1
    18    10    11    1
    19    10     5    1
    20    12    14    1
    21     5     4    1
    22     4     1    1
    23     1     2    2
    24     1     3    1
    25     1    24    1
    26    24    25    1
    27    25    26    2
    28    25    27    1
    29    25    28    1
    30    28    29    1
    31    29    30    1
    32    29    37    1
    33    30    31    1
    34    30    34    1
    35    31    32    1
    36    31    35    1
    37    32    33    1
    38    32    36    1
    39    33    41    1
    40    33    37    1
    41    41    42    1
    42    34    38    1
    43    35    39    1
    44    36    40    1
    45    42    43    1
@<TRIPOS>MOLECULE
GDU
 43 45 0 0 0
SMALL
GASTEIGER

@<TRIPOS>ATOM
      1 P          21.8400   72.3141   -6.2714 P.3     1  UNL1        0.2189
      2 O          23.2206   72.6998   -6.6385 O.2     1  UNL1       -0.5170
      3 O          20.8300   73.5091   -6.6517 O.3     1  UNL1       -0.4371
      4 O          21.4230   70.9835   -7.0729 O.3     1  UNL1       -0.3112
      5 C          20.5190   71.3869   -8.1027 C.3     1  UNL1        0.1811
      6 C          17.3831   70.1157   -6.8872 C.3     1  UNL1        0.2383
      7 C          16.9890   71.1590   -7.9637 C.3     1  UNL1        0.1895
      8 O          15.7623   70.7955   -8.6011 O.3     1  UNL1       -0.3779
      9 C          18.1769   71.0660   -8.9565 C.3     1  UNL1        0.1713
     10 C          19.3135   70.4454   -8.1231 C.3     1  UNL1        0.1764
     11 O          18.8158   70.2601   -6.7866 O.3     1  UNL1       -0.3308
     12 O          17.8402   70.2241  -10.0610 O.3     1  UNL1       -0.3794
     13 H          15.5743   71.4821   -9.2562 H       1  UNL1        0.2106
     14 H          17.0869   70.6347  -10.5067 H       1  UNL1        0.2105
     15 N          16.7426   70.4245   -5.6076 N.ar    1  UNL1       -0.2551
     16 C          16.3956   69.4252   -4.7773 C.ar    1  UNL1        0.3323
     17 N          15.8086   69.6822   -3.5935 N.ar    1  UNL1       -0.2743
     18 C          15.5491   70.9513   -3.2245 C.ar    1  UNL1        0.2626
     19 C          15.9037   72.0136   -4.0916 C.ar    1  UNL1        0.0795
     20 C          16.4952   71.7281   -5.2710 C.ar    1  UNL1        0.0869
     21 O          16.6239   68.2754   -5.0963 O.2     1  UNL1       -0.2464
     22 O          15.0134   71.1845   -2.1553 O.2     1  UNL1       -0.2670
     23 H          15.5689   68.9489   -3.0047 H       1  UNL1        0.1734
     24 O          21.7653   72.0338   -4.6876 O.3     1  UNL1       -0.2703
     25 P          22.8612   72.9860   -3.9930 P.3     1  UNL1        0.2208
     26 O          24.2135   72.4322   -4.2250 O.2     1  UNL1       -0.5170
     27 O          22.7699   74.4624   -4.6302 O.3     1  UNL1       -0.4371
     28 O          22.5776   73.0671   -2.4109 O.3     1  UNL1       -0.2858
     29 C          21.9705   71.8305   -2.0342 C.3     1  UNL1        0.2704
     30 C          20.5981   72.1043   -1.4169 C.3     1  UNL1        0.1967
     31 C          20.7726   73.0148   -0.1975 C.3     1  UNL1        0.1715
     32 C          21.7974   72.3773    0.7475 C.3     1  UNL1        0.1694
     33 C          23.0805   72.0844   -0.0342 C.3     1  UNL1        0.1761
     34 O          19.7598   72.7462   -2.3794 O.3     1  UNL1       -0.3775
     35 O          19.5205   73.1604    0.4760 O.3     1  UNL1       -0.3794
     36 O          21.2672   71.1616    1.2775 O.3     1  UNL1       -0.3794
     37 O          22.8025   71.1634   -1.0880 O.3     1  UNL1       -0.3258
     38 H          19.6839   72.1420   -3.1304 H       1  UNL1        0.2106
     39 H          18.9060   73.5523   -0.1573 H       1  UNL1        0.2105
     40 H          20.4598   71.3931    1.7549 H       1  UNL1        0.2105
     41 C          24.1230   71.4789    0.9084 C.3     1  UNL1        0.1693
     42 O          23.7633   70.1299    1.2115 O.3     1  UNL1       -0.3794
     43 H          24.4442   69.7855    1.8057 H       1  UNL1        0.2105
@<TRIPOS>BOND
     1    15    16   ar
     2    15    20   ar
     3    15     6    1
     4    16    17   ar
     5    16    21    2
     6    17    18   ar
     7    17    23    1
     8    18    19   ar
     9    18    22    2
    10    19    20   ar
    11     6     7    1
    12     6    11    1
    13     7     8    1
    14     7     9    1
    15     8    13    1
    16     9    10    1
    17     9    12    1
    18    10    11    1
    19    10     5    1
    20    12    14    1
    21     5     4    1
    22     4     1    1
    23     1     2    2
    24     1     3    1
    25     1    24    1
    26    24    25    1
    27    25    26    2
    28    25    27    1
    29    25    28    1
    30    28    29    1
    31    29    30    1
    32    29    37    1
    33    30    31    1
    34    30    34    1
    35    31    32    1
    36    31    35    1
    37    32    33    1
    38    32    36    1
    39    33    41    1
    40    33    37    1
    41    41    42    1
    42    34    38    1
    43    35    39    1
    44    36    40    1
    45    42    43    1
@<TRIPOS>MOLECULE
GDU
 43 45 0 0 0
SMALL
GASTEIGER

@<TRIPOS>ATOM
      1 P          22.2810   73.7013   -4.8057 P.3     1  UNL1        0.2189
      2 O          22.6459   74.9444   -5.5205 O.2     1  UNL1       -0.5170
      3 O          23.2129   72.4931   -5.3203 O.3     1  UNL1       -0.4371
      4 O          22.4947   73.9081   -3.2251 O.3     1  UNL1       -0.3112
      5 C          21.6239   74.9673   -2.8249 C.3     1  UNL1        0.1811
      6 C          21.6513   73.6147    0.5064 C.3     1  UNL1        0.2383
      7 C          22.0240   75.1082    0.6897 C.3     1  UNL1        0.1895
      8 O          21.5663   75.5966    1.9528 O.3     1  UNL1       -0.3779
      9 C          21.2530   75.7809   -0.4758 C.3     1  UNL1        0.1713
     10 C          20.9994   74.6318   -1.4692 C.3     1  UNL1        0.1764
     11 O          21.6144   73.4502   -0.9272 O.3     1  UNL1       -0.3308
     12 O          20.0187   76.3283   -0.0081 O.3     1  UNL1       -0.3794
     13 H          21.8289   76.5262    2.0040 H       1  UNL1        0.2106
     14 H          20.2418   76.9986    0.6520 H       1  UNL1        0.2105
     15 N          22.6727   72.7495    1.0987 N.ar    1  UNL1       -0.2551
     16 C          22.3477   71.5039    1.4876 C.ar    1  UNL1        0.3323
     17 N          23.2688   70.6870    2.0318 N.ar    1  UNL1       -0.2743
     18 C          24.5356   71.1104    2.2053 C.ar    1  UNL1        0.2626
     19 C          24.8909   72.4220    1.8057 C.ar    1  UNL1        0.0795
     20 C          23.9486   73.2191    1.2587 C.ar    1  UNL1        0.0869
     21 O          21.2091   71.1077    1.3370 O.2     1  UNL1       -0.2464
     22 O          25.3689   70.3733    2.7022 O.2     1  UNL1       -0.2670
     23 H          23.0177   69.7896    2.3028 H       1  UNL1        0.1734
     24 O          20.7374   73.3486   -5.0982 O.3     1  UNL1       -0.2703
     25 P          20.4656   71.8903   -4.4740 P.3     1  UNL1        0.2208
     26 O          21.7560   71.2501   -4.1366 O.2     1  UNL1       -0.5170
     27 O          19.5741   72.0354   -3.1404 O.3     1  UNL1       -0.4371
     28 O          19.6801   70.9840   -5.5471 O.3     1  UNL1       -0.2858
     29 C          18.7489   71.8397   -6.2106 C.3     1  UNL1        0.2704
     30 C          17.3234   71.3932   -5.8818 C.3     1  UNL1        0.1967
     31 C          17.1394   69.9408   -6.3326 C.3     1  UNL1        0.1715
     32 C          17.5323   69.8329   -7.8103 C.3     1  UNL1        0.1694
     33 C          18.9438   70.3964   -7.9925 C.3     1  UNL1        0.1761
     34 O          17.1044   71.4902   -4.4733 O.3     1  UNL1       -0.3775
     35 O          15.7730   69.5562   -6.1673 O.3     1  UNL1       -0.3794
     36 O          16.6089   70.5775   -8.6058 O.3     1  UNL1       -0.3794
     37 O          18.9644   71.7732   -7.6183 O.3     1  UNL1       -0.3258
     38 H          17.2374   72.4173   -4.2335 H       1  UNL1        0.2106
     39 H          15.5672   69.6509   -5.2287 H       1  UNL1        0.2105
     40 H          15.7358   70.1924   -8.4554 H       1  UNL1        0.2105
     41 C          19.3594   70.2619   -9.4592 C.3     1  UNL1        0.1693
     42 O          18.6565   71.2277  -10.2430 O.3     1  UNL1       -0.3794
     43 H          18.9467   71.1103  -11.1581 H       1  UNL1        0.2105
@<TRIPOS>BOND
     1    15    16   ar
     2    15    20   ar
     3    15     6    1
     4    16    17   ar
     5    16    21    2
     6    17    18   ar
     7    17    23    1
     8    18    19   ar
     9    18    22    2
    10    19    20   ar
    11     6     7    1
    12     6    11    1
    13     7     8    1
    14     7     9    1
    15     8    13    1
    16     9    10    1
    17     9    12    1
    18    10    11    1
    19    10     5    1
    20    12    14    1
    21     5     4    1
    22     4     1    1
    23     1     2    2
    24     1     3    1
    25     1    24    1
    26    24    25    1
    27    25    26    2
    28    25    27    1
    29    25    28    1
    30    28    29    1
    31    29    30    1
    32    29    37    1
    33    30    31    1
    34    30    34    1
    35    31    32    1
    36    31    35    1
    37    32    33    1
    38    32    36    1
    39    33    41    1
    40    33    37    1
    41    41    42    1
    42    34    38    1
    43    35    39    1
    44    36    40    1
    45    42    43    1
@<TRIPOS>MOLECULE
GDU
 43 45 0 0 0
SMALL
GASTEIGER

@<TRIPOS>ATOM
      1 P          22.6620   71.4594   -2.8503 P.3     1  UNL1        0.2189
      2 O          22.5630   72.8909   -3.2115 O.2     1  UNL1       -0.5170
      3 O          24.1380   70.9186   -3.1996 O.3     1  UNL1       -0.4371
      4 O          22.3842   71.2822   -1.2760 O.3     1  UNL1       -0.3112
      5 C          22.6081   72.5565   -0.6704 C.3     1  UNL1        0.1811
      6 C          24.2123   72.6280    2.5465 C.3     1  UNL1        0.2383
      7 C          23.8925   71.1306    2.3044 C.3     1  UNL1        0.1895
      8 O          24.8621   70.2931    2.9381 O.3     1  UNL1       -0.3779
      9 C          23.9927   71.0225    0.7606 C.3     1  UNL1        0.1713
     10 C          23.8106   72.4713    0.2713 C.3     1  UNL1        0.1764
     11 O          23.5825   73.2918    1.4302 O.3     1  UNL1       -0.3308
     12 O          25.2723   70.5150    0.3773 O.3     1  UNL1       -0.3794
     13 H          24.6066   69.3792    2.7503 H       1  UNL1        0.2106
     14 H          25.3498   69.6314    0.7619 H       1  UNL1        0.2105
     15 N          23.6329   73.0835    3.8113 N.ar    1  UNL1       -0.2551
     16 C          22.3596   72.7725    4.1117 C.ar    1  UNL1        0.3323
     17 N          21.8039   73.1759    5.2695 N.ar    1  UNL1       -0.2743
     18 C          22.5159   73.9102    6.1459 C.ar    1  UNL1        0.2626
     19 C          23.8565   74.2502    5.8402 C.ar    1  UNL1        0.0795
     20 C          24.3905   73.8291    4.6740 C.ar    1  UNL1        0.0869
     21 O          21.7050   72.1103    3.3313 O.2     1  UNL1       -0.2464
     22 O          22.0123   74.2799    7.1920 O.2     1  UNL1       -0.2670
     23 H          20.8850   72.9387    5.4720 H       1  UNL1        0.1734
     24 O          21.5723   70.6193   -3.6866 O.3     1  UNL1       -0.2703
     25 P          21.1209   71.5430   -4.9246 P.3     1  UNL1        0.2208
     26 O          20.4939   72.7816   -4.4128 O.2     1  UNL1       -0.5170
     27 O          22.4119   71.9220   -5.8100 O.3     1  UNL1       -0.4371
     28 O          20.0634   70.7419   -5.8357 O.3     1  UNL1       -0.2858
     29 C          19.1509   71.7080   -6.3590 C.3     1  UNL1        0.2704
     30 C          17.7450   71.4193   -5.8303 C.3     1  UNL1        0.1967
     31 C          17.3350   70.0045   -6.2509 C.3     1  UNL1        0.1715
     32 C          17.4996   69.8778   -7.7696 C.3     1  UNL1        0.1694
     33 C          18.9258   70.2819   -8.1512 C.3     1  UNL1        0.1761
     34 O          17.7403   71.5167   -4.4049 O.3     1  UNL1       -0.3775
     35 O          15.9710   69.7734   -5.8924 O.3     1  UNL1       -0.3794
     36 O          16.5635   70.7348   -8.4249 O.3     1  UNL1       -0.3794
     37 O          19.1557   71.6412   -7.7831 O.3     1  UNL1       -0.3258
     38 H          18.0106   72.4189   -4.1861 H       1  UNL1        0.2106
     39 H          15.9125   69.8749   -4.9340 H       1  UNL1        0.2105
     40 H          15.6824   70.4479   -8.1515 H       1  UNL1        0.2105
     41 C          19.1112   70.1261   -9.6623 C.3     1  UNL1        0.1693
     42 O          18.6828   71.3200  -10.3195 O.3     1  UNL1       -0.3794
     43 H          18.8164   71.1812  -11.2672 H       1  UNL1        0.2105
@<TRIPOS>BOND
     1    15    16   ar
     2    15    20   ar
     3    15     6    1
     4    16    17   ar
     5    16    21    2
     6    17    18   ar
     7    17    23    1
     8    18    19   ar
     9    18    22    2
    10    19    20   ar
    11     6     7    1
    12     6    11    1
    13     7     8    1
    14     7     9    1
    15     8    13    1
    16     9    10    1
    17     9    12    1
    18    10    11    1
    19    10     5    1
    20    12    14    1
    21     5     4    1
    22     4     1    1
    23     1     2    2
    24     1     3    1
    25     1    24    1
    26    24    25    1
    27    25    26    2
    28    25    27    1
    29    25    28    1
    30    28    29    1
    31    29    30    1
    32    29    37    1
    33    30    31    1
    34    30    34    1
    35    31    32    1
    36    31    35    1
    37    32    33    1
    38    32    36    1
    39    33    41    1
    40    33    37    1
    41    41    42    1
    42    34    38    1
    43    35    39    1
    44    36    40    1
    45    42    43    1
