@<TRIPOS>MOLECULE
GDU
 43 45 0 0 0
SMALL
GASTEIGER

@<TRIPOS>ATOM
      1 P          21.0743   71.3080   -2.4252 P.3     1  UNL1        0.2189
      2 O          22.2671   70.4326   -2.4061 O.2     1  UNL1       -0.5170
      3 O          21.4555   72.7197   -3.0997 O.3     1  UNL1       -0.4371
      4 O          19.9054   70.6045   -3.2771 O.3     1  UNL1       -0.3112
      5 C          18.7180   70.6737   -2.4861 C.3     1  UNL1        0.1811
      6 C          17.0471   70.5048   -5.6652 C.3     1  UNL1        0.2383
      7 C          16.9806   69.0578   -5.1134 C.3     1  UNL1        0.1895
      8 O          15.8011   68.3917   -5.5698 O.3     1  UNL1       -0.3779
      9 C          16.9236   69.2964   -3.5820 C.3     1  UNL1        0.1713
     10 C          17.4941   70.7155   -3.4029 C.3     1  UNL1        0.1764
     11 O          17.8750   71.1941   -4.7045 O.3     1  UNL1       -0.3308
     12 O          15.5745   69.2297   -3.1159 O.3     1  UNL1       -0.3794
     13 H          15.8205   67.5009   -5.1931 H       1  UNL1        0.2106
     14 H          15.2551   68.3379   -3.3091 H       1  UNL1        0.2105
     15 N          17.6684   70.5257   -6.9905 N.ar    1  UNL1       -0.2551
     16 C          16.8957   70.4795   -8.0901 C.ar    1  UNL1        0.3323
     17 N          17.4416   70.5010   -9.3203 N.ar    1  UNL1       -0.2743
     18 C          18.7789   70.5594   -9.4699 C.ar    1  UNL1        0.2626
     19 C          19.6056   70.6028   -8.3205 C.ar    1  UNL1        0.0795
     20 C          19.0319   70.5844   -7.0987 C.ar    1  UNL1        0.0869
     21 O          15.6878   70.4271   -7.9710 O.2     1  UNL1       -0.2464
     22 O          19.2742   70.5741  -10.5830 O.2     1  UNL1       -0.2670
     23 H          16.8686   70.4713  -10.1029 H       1  UNL1        0.1734
     24 O          20.5669   71.5549   -0.9172 O.3     1  UNL1       -0.2703
     25 P          21.8437   71.3592    0.0427 P.3     1  UNL1        0.2208
     26 O          21.7063   70.0916    0.7934 O.2     1  UNL1       -0.5170
     27 O          23.1835   71.3111   -0.8499 O.3     1  UNL1       -0.4371
     28 O          21.9328   72.5893    1.0765 O.3     1  UNL1       -0.2858
     29 C          22.4757   72.0716    2.2918 C.3     1  UNL1        0.2704
     30 C          21.7190   72.6653    3.4810 C.3     1  UNL1        0.1967
     31 C          21.8440   74.1914    3.4399 C.3     1  UNL1        0.1715
     32 C          23.3300   74.5596    3.3626 C.3     1  UNL1        0.1694
     33 C          23.9644   73.8231    2.1802 C.3     1  UNL1        0.1761
     34 O          20.3415   72.2941    3.4054 O.3     1  UNL1       -0.3775
     35 O          21.2687   74.7523    4.6218 O.3     1  UNL1       -0.3794
     36 O          23.9807   74.1767    4.5750 O.3     1  UNL1       -0.3794
     37 O          23.8570   72.4140    2.3771 O.3     1  UNL1       -0.3258
     38 H          20.3113   71.3279    3.4273 H       1  UNL1        0.2106
     39 H          20.3407   74.4862    4.6348 H       1  UNL1        0.2105
     40 H          23.5459   74.6589    5.2904 H       1  UNL1        0.2105
     41 C          25.4410   74.2104    2.0732 C.3     1  UNL1        0.1693
     42 O          26.2100   73.4043    2.9675 O.3     1  UNL1       -0.3794
     43 H          27.1321   73.6787    2.8690 H       1  UNL1        0.2105
@<TRIPOS>BOND
     1    15    16   ar
     2    15    20   ar
     3    15     6    1
     4    16    17   ar
     5    16    21    2
     6    17    18   ar
     7    17    23    1
     8    18    19   ar
     9    18    22    2
    10    19    20   ar
    11     6     7    1
    12     6    11    1
    13     7     8    1
    14     7     9    1
    15     8    13    1
    16     9    10    1
    17     9    12    1
    18    10    11    1
    19    10     5    1
    20    12    14    1
    21     5     4    1
    22     4     1    1
    23     1     2    2
    24     1     3    1
    25     1    24    1
    26    24    25    1
    27    25    26    2
    28    25    27    1
    29    25    28    1
    30    28    29    1
    31    29    30    1
    32    29    37    1
    33    30    31    1
    34    30    34    1
    35    31    32    1
    36    31    35    1
    37    32    33    1
    38    32    36    1
    39    33    41    1
    40    33    37    1
    41    41    42    1
    42    34    38    1
    43    35    39    1
    44    36    40    1
    45    42    43    1
@<TRIPOS>MOLECULE
GDU
 43 45 0 0 0
SMALL
GASTEIGER

@<TRIPOS>ATOM
      1 P          20.7859   71.1061   -3.1974 P.3     1  UNL1        0.2189
      2 O          21.1193   71.4798   -4.5898 O.2     1  UNL1       -0.5170
      3 O          20.3834   72.4270   -2.3690 O.3     1  UNL1       -0.4371
      4 O          19.5504   70.0763   -3.1988 O.3     1  UNL1       -0.3112
      5 C          18.4479   70.7519   -2.5916 C.3     1  UNL1        0.1811
      6 C          16.9044   70.5155   -5.8303 C.3     1  UNL1        0.2383
      7 C          16.8410   69.0744   -5.2629 C.3     1  UNL1        0.1895
      8 O          15.6914   68.3824   -5.7558 O.3     1  UNL1       -0.3779
      9 C          16.7208   69.3305   -3.7381 C.3     1  UNL1        0.1713
     10 C          17.2599   70.7614   -3.5553 C.3     1  UNL1        0.1764
     11 O          17.6828   71.2306   -4.8473 O.3     1  UNL1       -0.3308
     12 O          15.3559   69.2462   -3.3234 O.3     1  UNL1       -0.3794
     13 H          15.7112   67.4967   -5.3673 H       1  UNL1        0.2106
     14 H          15.0593   68.3467   -3.5173 H       1  UNL1        0.2105
     15 N          17.5761   70.5311   -7.1309 N.ar    1  UNL1       -0.2551
     16 C          16.8449   70.5188   -8.2593 C.ar    1  UNL1        0.3323
     17 N          17.4376   70.5362   -9.4677 N.ar    1  UNL1       -0.2743
     18 C          18.7808   70.5563   -9.5659 C.ar    1  UNL1        0.2626
     19 C          19.5640   70.5636   -8.3858 C.ar    1  UNL1        0.0795
     20 C          18.9438   70.5501   -7.1868 C.ar    1  UNL1        0.0869
     21 O          15.6322   70.5012   -8.1865 O.2     1  UNL1       -0.2464
     22 O          19.3183   70.5672  -10.6593 O.2     1  UNL1       -0.2670
     23 H          16.8942   70.5313  -10.2717 H       1  UNL1        0.1734
     24 O          22.0646   70.4112   -2.5085 O.3     1  UNL1       -0.2703
     25 P          23.1713   71.5626   -2.3107 P.3     1  UNL1        0.2208
     26 O          24.5036   71.0343   -2.6782 O.2     1  UNL1       -0.5170
     27 O          22.8136   72.8182   -3.2539 O.3     1  UNL1       -0.4371
     28 O          23.1862   72.0357   -0.7725 O.3     1  UNL1       -0.2858
     29 C          23.2651   70.8532    0.0246 C.3     1  UNL1        0.2704
     30 C          22.0613   70.7925    0.9661 C.3     1  UNL1        0.1967
     31 C          22.0574   72.0424    1.8516 C.3     1  UNL1        0.1715
     32 C          23.4208   72.1575    2.5427 C.3     1  UNL1        0.1694
     33 C          24.5223   72.1167    1.4805 C.3     1  UNL1        0.1761
     34 O          20.8564   70.7432    0.1999 O.3     1  UNL1       -0.3775
     35 O          21.0261   71.9311    2.8347 O.3     1  UNL1       -0.3794
     36 O          23.5882   71.0702    3.4536 O.3     1  UNL1       -0.3794
     37 O          24.4723   70.8730    0.7829 O.3     1  UNL1       -0.3258
     38 H          20.9055   69.9468   -0.3462 H       1  UNL1        0.2106
     39 H          20.1913   71.8491    2.3565 H       1  UNL1        0.2105
     40 H          22.8718   71.1327    4.0986 H       1  UNL1        0.2105
     41 C          25.8868   72.2655    2.1572 C.3     1  UNL1        0.1693
     42 O          26.4523   70.9720    2.3766 O.3     1  UNL1       -0.3794
     43 H          27.3094   71.1099    2.8028 H       1  UNL1        0.2105
@<TRIPOS>BOND
     1    15    16   ar
     2    15    20   ar
     3    15     6    1
     4    16    17   ar
     5    16    21    2
     6    17    18   ar
     7    17    23    1
     8    18    19   ar
     9    18    22    2
    10    19    20   ar
    11     6     7    1
    12     6    11    1
    13     7     8    1
    14     7     9    1
    15     8    13    1
    16     9    10    1
    17     9    12    1
    18    10    11    1
    19    10     5    1
    20    12    14    1
    21     5     4    1
    22     4     1    1
    23     1     2    2
    24     1     3    1
    25     1    24    1
    26    24    25    1
    27    25    26    2
    28    25    27    1
    29    25    28    1
    30    28    29    1
    31    29    30    1
    32    29    37    1
    33    30    31    1
    34    30    34    1
    35    31    32    1
    36    31    35    1
    37    32    33    1
    38    32    36    1
    39    33    41    1
    40    33    37    1
    41    41    42    1
    42    34    38    1
    43    35    39    1
    44    36    40    1
    45    42    43    1
@<TRIPOS>MOLECULE
GDU
 43 45 0 0 0
SMALL
GASTEIGER

@<TRIPOS>ATOM
      1 P          21.0132   71.6897   -1.9832 P.3     1  UNL1        0.2189
      2 O          22.2521   71.1120   -2.5496 O.2     1  UNL1       -0.5170
      3 O          21.2771   73.2230   -1.5681 O.3     1  UNL1       -0.4371
      4 O          19.8397   71.6254   -3.0813 O.3     1  UNL1       -0.3112
      5 C          18.8365   70.7499   -2.5640 C.3     1  UNL1        0.1811
      6 C          17.1241   70.5522   -5.7193 C.3     1  UNL1        0.2383
      7 C          17.0405   69.1166   -5.1406 C.3     1  UNL1        0.1895
      8 O          15.8446   68.4623   -5.5707 O.3     1  UNL1       -0.3779
      9 C          17.0063   69.3834   -3.6132 C.3     1  UNL1        0.1713
     10 C          17.6023   70.7958   -3.4666 C.3     1  UNL1        0.1764
     11 O          17.9750   71.2446   -4.7811 O.3     1  UNL1       -0.3308
     12 O          15.6621   69.3477   -3.1298 O.3     1  UNL1       -0.3794
     13 H          15.8540   67.5781   -5.1783 H       1  UNL1        0.2106
     14 H          15.3257   68.4580   -3.3030 H       1  UNL1        0.2105
     15 N          17.7293   70.5391   -7.0521 N.ar    1  UNL1       -0.2551
     16 C          16.9425   70.4847   -8.1412 C.ar    1  UNL1        0.3323
     17 N          17.4735   70.4751   -9.3781 N.ar    1  UNL1       -0.2743
     18 C          18.8096   70.5098   -9.5447 C.ar    1  UNL1        0.2626
     19 C          19.6510   70.5614   -8.4064 C.ar    1  UNL1        0.0795
     20 C          19.0921   70.5744   -7.1776 C.ar    1  UNL1        0.0869
     21 O          15.7355   70.4534   -8.0067 O.2     1  UNL1       -0.2464
     22 O          19.2914   70.4963  -10.6638 O.2     1  UNL1       -0.2670
     23 H          16.8905   70.4399  -10.1531 H       1  UNL1        0.1734
     24 O          20.5774   70.8499   -0.6804 O.3     1  UNL1       -0.2703
     25 P          21.7203   71.0825    0.4285 P.3     1  UNL1        0.2208
     26 O          21.9262   69.8332    1.1939 O.2     1  UNL1       -0.5170
     27 O          23.0960   71.4989   -0.2982 O.3     1  UNL1       -0.4371
     28 O          21.2667   72.2579    1.4298 O.3     1  UNL1       -0.2858
     29 C          22.4346   73.0252    1.7252 C.3     1  UNL1        0.2704
     30 C          22.9989   72.5927    3.0794 C.3     1  UNL1        0.1967
     31 C          21.9284   72.8011    4.1551 C.3     1  UNL1        0.1715
     32 C          21.4398   74.2523    4.0855 C.3     1  UNL1        0.1694
     33 C          20.9915   74.5584    2.6543 C.3     1  UNL1        0.1761
     34 O          23.3644   71.2125    3.0269 O.3     1  UNL1       -0.3775
     35 O          22.4869   72.5413    5.4448 O.3     1  UNL1       -0.3794
     36 O          22.5015   75.1323    4.4574 O.3     1  UNL1       -0.3794
     37 O          22.0949   74.4093    1.7620 O.3     1  UNL1       -0.3258
     38 H          24.0329   71.1272    2.3335 H       1  UNL1        0.2106
     39 H          22.7907   71.6249    5.4388 H       1  UNL1        0.2105
     40 H          22.7544   74.8999    5.3603 H       1  UNL1        0.2105
     41 C          20.4694   75.9951    2.5815 C.3     1  UNL1        0.1693
     42 O          19.1802   76.0641    3.1932 O.3     1  UNL1       -0.3794
     43 H          18.8879   76.9836    3.1271 H       1  UNL1        0.2105
@<TRIPOS>BOND
     1    15    16   ar
     2    15    20   ar
     3    15     6    1
     4    16    17   ar
     5    16    21    2
     6    17    18   ar
     7    17    23    1
     8    18    19   ar
     9    18    22    2
    10    19    20   ar
    11     6     7    1
    12     6    11    1
    13     7     8    1
    14     7     9    1
    15     8    13    1
    16     9    10    1
    17     9    12    1
    18    10    11    1
    19    10     5    1
    20    12    14    1
    21     5     4    1
    22     4     1    1
    23     1     2    2
    24     1     3    1
    25     1    24    1
    26    24    25    1
    27    25    26    2
    28    25    27    1
    29    25    28    1
    30    28    29    1
    31    29    30    1
    32    29    37    1
    33    30    31    1
    34    30    34    1
    35    31    32    1
    36    31    35    1
    37    32    33    1
    38    32    36    1
    39    33    41    1
    40    33    37    1
    41    41    42    1
    42    34    38    1
    43    35    39    1
    44    36    40    1
    45    42    43    1
@<TRIPOS>MOLECULE
GDU
 43 45 0 0 0
SMALL
GASTEIGER

@<TRIPOS>ATOM
      1 P          23.4977   72.2581   -3.1637 P.3     1  UNL1        0.2189
      2 O          23.9555   70.8981   -2.8027 O.2     1  UNL1       -0.5170
      3 O          24.5419   72.9195   -4.1957 O.3     1  UNL1       -0.4371
      4 O          22.0461   72.1712   -3.8509 O.3     1  UNL1       -0.3112
      5 C          21.8231   73.4208   -4.5063 C.3     1  UNL1        0.1811
      6 C          19.2813   72.0073   -6.6202 C.3     1  UNL1        0.2383
      7 C          18.7234   73.3960   -6.2161 C.3     1  UNL1        0.1895
      8 O          17.8937   73.9325   -7.2490 O.3     1  UNL1       -0.3779
      9 C          20.0193   74.2330   -6.0569 C.3     1  UNL1        0.1713
     10 C          21.1218   73.1790   -5.8441 C.3     1  UNL1        0.1764
     11 O          20.4879   71.8881   -5.8370 O.3     1  UNL1       -0.3308
     12 O          20.2692   74.9965   -7.2385 O.3     1  UNL1       -0.3794
     13 H          17.5800   74.7925   -6.9363 H       1  UNL1        0.2106
     14 H          19.5179   75.5948   -7.3495 H       1  UNL1        0.2105
     15 N          18.3337   70.9472   -6.2723 N.ar    1  UNL1       -0.2551
     16 C          17.4610   70.5039   -7.1943 C.ar    1  UNL1        0.3323
     17 N          16.5817   69.5277   -6.9012 N.ar    1  UNL1       -0.2743
     18 C          16.5556   68.9834   -5.6695 C.ar    1  UNL1        0.2626
     19 C          17.4652   69.4444   -4.6864 C.ar    1  UNL1        0.0795
     20 C          18.3393   70.4216   -5.0082 C.ar    1  UNL1        0.0869
     21 O          17.4730   70.9849   -8.3099 O.2     1  UNL1       -0.2464
     22 O          15.7569   68.1031   -5.4018 O.2     1  UNL1       -0.2670
     23 H          15.9619   69.2170   -7.5802 H       1  UNL1        0.1734
     24 O          23.4108   73.1642   -1.8357 O.3     1  UNL1       -0.2703
     25 P          22.8266   72.2246   -0.6670 P.3     1  UNL1        0.2208
     26 O          21.5511   71.6207   -1.1112 O.2     1  UNL1       -0.5170
     27 O          23.8863   71.0573   -0.3372 O.3     1  UNL1       -0.4371
     28 O          22.5725   73.1061    0.6553 O.3     1  UNL1       -0.2858
     29 C          23.0225   72.3283    1.7654 C.3     1  UNL1        0.2704
     30 C          21.9633   72.3549    2.8684 C.3     1  UNL1        0.1967
     31 C          21.7182   73.8071    3.2894 C.3     1  UNL1        0.1715
     32 C          23.0625   74.4433    3.6606 C.3     1  UNL1        0.1694
     33 C          24.0384   74.2599    2.4957 C.3     1  UNL1        0.1761
     34 O          20.7480   71.7853    2.3787 O.3     1  UNL1       -0.3775
     35 O          20.8416   73.8385    4.4178 O.3     1  UNL1       -0.3794
     36 O          23.5834   73.8112    4.8307 O.3     1  UNL1       -0.3794
     37 O          24.2469   72.8687    2.2568 O.3     1  UNL1       -0.3258
     38 H          20.9506   70.8761    2.1193 H       1  UNL1        0.2106
     39 H          20.0165   73.4190    4.1429 H       1  UNL1        0.2105
     40 H          22.9353   73.9469    5.5341 H       1  UNL1        0.2105
     41 C          25.3739   74.9219    2.8424 C.3     1  UNL1        0.1693
     42 O          26.2178   73.9746    3.4993 O.3     1  UNL1       -0.3794
     43 H          27.0471   74.4301    3.6995 H       1  UNL1        0.2105
@<TRIPOS>BOND
     1    15    16   ar
     2    15    20   ar
     3    15     6    1
     4    16    17   ar
     5    16    21    2
     6    17    18   ar
     7    17    23    1
     8    18    19   ar
     9    18    22    2
    10    19    20   ar
    11     6     7    1
    12     6    11    1
    13     7     8    1
    14     7     9    1
    15     8    13    1
    16     9    10    1
    17     9    12    1
    18    10    11    1
    19    10     5    1
    20    12    14    1
    21     5     4    1
    22     4     1    1
    23     1     2    2
    24     1     3    1
    25     1    24    1
    26    24    25    1
    27    25    26    2
    28    25    27    1
    29    25    28    1
    30    28    29    1
    31    29    30    1
    32    29    37    1
    33    30    31    1
    34    30    34    1
    35    31    32    1
    36    31    35    1
    37    32    33    1
    38    32    36    1
    39    33    41    1
    40    33    37    1
    41    41    42    1
    42    34    38    1
    43    35    39    1
    44    36    40    1
    45    42    43    1
@<TRIPOS>MOLECULE
GDU
 43 45 0 0 0
SMALL
GASTEIGER

@<TRIPOS>ATOM
      1 P          20.7085   71.3512   -1.0804 P.3     1  UNL1        0.2189
      2 O          21.0624   72.7833   -0.9650 O.2     1  UNL1       -0.5170
      3 O          20.9127   70.6313    0.3454 O.3     1  UNL1       -0.4371
      4 O          19.1723   71.2127   -1.5363 O.3     1  UNL1       -0.3112
      5 C          19.1421   70.2683   -2.6076 C.3     1  UNL1        0.1811
      6 C          17.2931   70.4288   -5.6870 C.3     1  UNL1        0.2383
      7 C          17.0898   68.9759   -5.1864 C.3     1  UNL1        0.1895
      8 O          15.8182   68.4683   -5.5970 O.3     1  UNL1       -0.3779
      9 C          17.1438   69.1524   -3.6465 C.3     1  UNL1        0.1713
     10 C          17.8834   70.4886   -3.4486 C.3     1  UNL1        0.1764
     11 O          18.2459   70.9772   -4.7517 O.3     1  UNL1       -0.3308
     12 O          15.8233   69.2188   -3.1046 O.3     1  UNL1       -0.3794
     13 H          15.7549   67.5654   -5.2555 H       1  UNL1        0.2106
     14 H          15.3930   68.3781   -3.3117 H       1  UNL1        0.2105
     15 N          17.8400   70.4370   -7.0449 N.ar    1  UNL1       -0.2551
     16 C          17.0059   70.4426   -8.0997 C.ar    1  UNL1        0.3323
     17 N          17.4828   70.4538   -9.3583 N.ar    1  UNL1       -0.2743
     18 C          18.8110   70.4494   -9.5823 C.ar    1  UNL1        0.2626
     19 C          19.7015   70.4377   -8.4809 C.ar    1  UNL1        0.0795
     20 C          19.1965   70.4310   -7.2290 C.ar    1  UNL1        0.0869
     21 O          15.8053   70.4471   -7.9134 O.2     1  UNL1       -0.2464
     22 O          19.2436   70.4547  -10.7213 O.2     1  UNL1       -0.2670
     23 H          16.8663   70.4620  -10.1078 H       1  UNL1        0.1734
     24 O          21.6595   70.6508   -2.1747 O.3     1  UNL1       -0.2703
     25 P          23.0009   71.5358   -2.2619 P.3     1  UNL1        0.2208
     26 O          23.4434   71.8962   -0.8968 O.2     1  UNL1       -0.5170
     27 O          24.1573   70.6865   -2.9937 O.3     1  UNL1       -0.4371
     28 O          22.7072   72.8760   -3.1032 O.3     1  UNL1       -0.2858
     29 C          23.8711   73.1362   -3.8888 C.3     1  UNL1        0.2704
     30 C          24.3086   74.5876   -3.6854 C.3     1  UNL1        0.1967
     31 C          23.1611   75.5162   -4.0946 C.3     1  UNL1        0.1715
     32 C          22.7269   75.1596   -5.5207 C.3     1  UNL1        0.1694
     33 C          22.4073   73.6640   -5.5844 C.3     1  UNL1        0.1761
     34 O          24.6325   74.8017   -2.3104 O.3     1  UNL1       -0.3775
     35 O          23.6036   76.8745   -4.0503 O.3     1  UNL1       -0.3794
     36 O          23.7826   75.4667   -6.4325 O.3     1  UNL1       -0.3794
     37 O          23.5745   72.9083   -5.2645 O.3     1  UNL1       -0.3258
     38 H          25.3522   74.1930   -2.0953 H       1  UNL1        0.2106
     39 H          23.8771   77.0502   -3.1412 H       1  UNL1        0.2105
     40 H          23.9532   76.4144   -6.3542 H       1  UNL1        0.2105
     41 C          21.9396   73.3038   -6.9963 C.3     1  UNL1        0.1693
     42 O          20.5628   73.6552   -7.1452 O.3     1  UNL1       -0.3794
     43 H          20.3081   73.4133   -8.0463 H       1  UNL1        0.2105
@<TRIPOS>BOND
     1    15    16   ar
     2    15    20   ar
     3    15     6    1
     4    16    17   ar
     5    16    21    2
     6    17    18   ar
     7    17    23    1
     8    18    19   ar
     9    18    22    2
    10    19    20   ar
    11     6     7    1
    12     6    11    1
    13     7     8    1
    14     7     9    1
    15     8    13    1
    16     9    10    1
    17     9    12    1
    18    10    11    1
    19    10     5    1
    20    12    14    1
    21     5     4    1
    22     4     1    1
    23     1     2    2
    24     1     3    1
    25     1    24    1
    26    24    25    1
    27    25    26    2
    28    25    27    1
    29    25    28    1
    30    28    29    1
    31    29    30    1
    32    29    37    1
    33    30    31    1
    34    30    34    1
    35    31    32    1
    36    31    35    1
    37    32    33    1
    38    32    36    1
    39    33    41    1
    40    33    37    1
    41    41    42    1
    42    34    38    1
    43    35    39    1
    44    36    40    1
    45    42    43    1
@<TRIPOS>MOLECULE
GDU
 43 45 0 0 0
SMALL
GASTEIGER

@<TRIPOS>ATOM
      1 P          21.2186   71.5639   -2.5851 P.3     1  UNL1        0.2189
      2 O          22.0646   71.7280   -1.3822 O.2     1  UNL1       -0.5170
      3 O          21.5940   70.1814   -3.3205 O.3     1  UNL1       -0.4371
      4 O          19.6696   71.5384   -2.1529 O.3     1  UNL1       -0.3112
      5 C          19.1445   70.2770   -2.5695 C.3     1  UNL1        0.1811
      6 C          17.2896   70.4477   -5.6448 C.3     1  UNL1        0.2383
      7 C          17.0893   68.9924   -5.1498 C.3     1  UNL1        0.1895
      8 O          15.8176   68.4847   -5.5602 O.3     1  UNL1       -0.3779
      9 C          17.1459   69.1625   -3.6093 C.3     1  UNL1        0.1713
     10 C          17.8839   70.4990   -3.4073 C.3     1  UNL1        0.1764
     11 O          18.2434   70.9935   -4.7089 O.3     1  UNL1       -0.3308
     12 O          15.8262   69.2248   -3.0647 O.3     1  UNL1       -0.3794
     13 H          15.7562   67.5804   -5.2224 H       1  UNL1        0.2106
     14 H          15.3967   68.3845   -3.2745 H       1  UNL1        0.2105
     15 N          17.8340   70.4623   -7.0036 N.ar    1  UNL1       -0.2551
     16 C          16.9983   70.4463   -8.0570 C.ar    1  UNL1        0.3323
     17 N          17.4728   70.4628   -9.3165 N.ar    1  UNL1       -0.2743
     18 C          18.8004   70.4856   -9.5427 C.ar    1  UNL1        0.2626
     19 C          19.6928   70.4968   -8.4428 C.ar    1  UNL1        0.0795
     20 C          19.1900   70.4842   -7.1900 C.ar    1  UNL1        0.0869
     21 O          15.7982   70.4262   -7.8686 O.2     1  UNL1       -0.2464
     22 O          19.2310   70.4957  -10.6824 O.2     1  UNL1       -0.2670
     23 H          16.8551   70.4553  -10.0649 H       1  UNL1        0.1734
     24 O          21.4758   72.7932   -3.5927 O.3     1  UNL1       -0.2703
     25 P          23.0689   73.0082   -3.6694 P.3     1  UNL1        0.2208
     26 O          23.5028   73.8808   -2.5562 O.2     1  UNL1       -0.5170
     27 O          23.8088   71.5823   -3.5528 O.3     1  UNL1       -0.4371
     28 O          23.4515   73.6967   -5.0728 O.3     1  UNL1       -0.2858
     29 C          22.2268   73.9227   -5.7718 C.3     1  UNL1        0.2704
     30 C          22.3204   73.3156   -7.1725 C.3     1  UNL1        0.1967
     31 C          23.4946   73.9584   -7.9171 C.3     1  UNL1        0.1715
     32 C          23.3260   75.4814   -7.8762 C.3     1  UNL1        0.1694
     33 C          23.1579   75.9247   -6.4208 C.3     1  UNL1        0.1761
     34 O          22.5306   71.9061   -7.0702 O.3     1  UNL1       -0.3775
     35 O          23.5057   73.5104   -9.2741 O.3     1  UNL1       -0.3794
     36 O          22.1722   75.8548   -8.6307 O.3     1  UNL1       -0.3794
     37 O          21.9877   75.3249   -5.8670 O.3     1  UNL1       -0.3258
     38 H          21.7731   71.5452   -6.5897 H       1  UNL1        0.2106
     39 H          23.6012   72.5499   -9.2510 H       1  UNL1        0.2105
     40 H          22.3196   75.5515   -9.5360 H       1  UNL1        0.2105
     41 C          23.0230   77.4481   -6.3658 C.3     1  UNL1        0.1693
     42 O          24.2667   78.0212   -5.9585 O.3     1  UNL1       -0.3794
     43 H          24.1396   78.9797   -5.9373 H       1  UNL1        0.2105
@<TRIPOS>BOND
     1    15    16   ar
     2    15    20   ar
     3    15     6    1
     4    16    17   ar
     5    16    21    2
     6    17    18   ar
     7    17    23    1
     8    18    19   ar
     9    18    22    2
    10    19    20   ar
    11     6     7    1
    12     6    11    1
    13     7     8    1
    14     7     9    1
    15     8    13    1
    16     9    10    1
    17     9    12    1
    18    10    11    1
    19    10     5    1
    20    12    14    1
    21     5     4    1
    22     4     1    1
    23     1     2    2
    24     1     3    1
    25     1    24    1
    26    24    25    1
    27    25    26    2
    28    25    27    1
    29    25    28    1
    30    28    29    1
    31    29    30    1
    32    29    37    1
    33    30    31    1
    34    30    34    1
    35    31    32    1
    36    31    35    1
    37    32    33    1
    38    32    36    1
    39    33    41    1
    40    33    37    1
    41    41    42    1
    42    34    38    1
    43    35    39    1
    44    36    40    1
    45    42    43    1
@<TRIPOS>MOLECULE
GDU
 43 45 0 0 0
SMALL
GASTEIGER

@<TRIPOS>ATOM
      1 P          21.0892   71.7138   -2.9182 P.3     1  UNL1        0.2189
      2 O          22.4329   71.3664   -3.4313 O.2     1  UNL1       -0.5170
      3 O          20.6123   73.1093   -3.5649 O.3     1  UNL1       -0.4371
      4 O          20.0468   70.5548   -3.3144 O.3     1  UNL1       -0.3112
      5 C          18.8891   70.7431   -2.4991 C.3     1  UNL1        0.1811
      6 C          17.1316   70.5343   -5.6288 C.3     1  UNL1        0.2383
      7 C          17.0805   69.0944   -5.0570 C.3     1  UNL1        0.1895
      8 O          15.8890   68.4228   -5.4723 O.3     1  UNL1       -0.3779
      9 C          17.0656   69.3524   -3.5278 C.3     1  UNL1        0.1713
     10 C          17.6405   70.7736   -3.3824 C.3     1  UNL1        0.1764
     11 O          17.9855   71.2355   -4.6999 O.3     1  UNL1       -0.3308
     12 O          15.7297   69.2920   -3.0240 O.3     1  UNL1       -0.3794
     13 H          15.9189   67.5368   -5.0851 H       1  UNL1        0.2106
     14 H          15.4053   68.3978   -3.1970 H       1  UNL1        0.2105
     15 N          17.7164   70.5383   -6.9707 N.ar    1  UNL1       -0.2551
     16 C          16.9146   70.4627   -8.0477 C.ar    1  UNL1        0.3323
     17 N          17.4266   70.4681   -9.2926 N.ar    1  UNL1       -0.2743
     18 C          18.7585   70.5397   -9.4798 C.ar    1  UNL1        0.2626
     19 C          19.6156   70.6139   -8.3546 C.ar    1  UNL1        0.0795
     20 C          19.0755   70.6111   -7.1173 C.ar    1  UNL1        0.0869
     21 O          15.7111   70.3981   -7.8946 O.2     1  UNL1       -0.2464
     22 O          19.2231   70.5398  -10.6062 O.2     1  UNL1       -0.2670
     23 H          16.8328   70.4172  -10.0586 H       1  UNL1        0.1734
     24 O          21.1488   71.8591   -1.3158 O.3     1  UNL1       -0.2703
     25 P          21.9171   73.2375   -1.0004 P.3     1  UNL1        0.2208
     26 O          23.0663   73.3832   -1.9208 O.2     1  UNL1       -0.5170
     27 O          20.9059   74.4743   -1.2055 O.3     1  UNL1       -0.4371
     28 O          22.4443   73.2236    0.5200 O.3     1  UNL1       -0.2858
     29 C          22.5422   74.5858    0.9378 C.3     1  UNL1        0.2704
     30 C          23.9848   74.8914    1.3440 C.3     1  UNL1        0.1967
     31 C          24.3941   73.9470    2.4785 C.3     1  UNL1        0.1715
     32 C          23.3614   74.0588    3.6057 C.3     1  UNL1        0.1694
     33 C          21.9652   73.8142    3.0278 C.3     1  UNL1        0.1761
     34 O          24.8489   74.6978    0.2228 O.3     1  UNL1       -0.3775
     35 O          25.6849   74.3161    2.9683 O.3     1  UNL1       -0.3794
     36 O          23.4231   75.3640    4.1825 O.3     1  UNL1       -0.3794
     37 O          21.6708   74.8054    2.0446 O.3     1  UNL1       -0.3258
     38 H          24.5507   75.3056   -0.4675 H       1  UNL1        0.2106
     39 H          26.2975   74.2428    2.2256 H       1  UNL1        0.2105
     40 H          24.3186   75.4756    4.5272 H       1  UNL1        0.2105
     41 C          20.9295   73.8896    4.1519 C.3     1  UNL1        0.1693
     42 O          21.2465   74.9805    5.0181 O.3     1  UNL1       -0.3794
     43 H          20.5713   74.9937    5.7103 H       1  UNL1        0.2105
@<TRIPOS>BOND
     1    15    16   ar
     2    15    20   ar
     3    15     6    1
     4    16    17   ar
     5    16    21    2
     6    17    18   ar
     7    17    23    1
     8    18    19   ar
     9    18    22    2
    10    19    20   ar
    11     6     7    1
    12     6    11    1
    13     7     8    1
    14     7     9    1
    15     8    13    1
    16     9    10    1
    17     9    12    1
    18    10    11    1
    19    10     5    1
    20    12    14    1
    21     5     4    1
    22     4     1    1
    23     1     2    2
    24     1     3    1
    25     1    24    1
    26    24    25    1
    27    25    26    2
    28    25    27    1
    29    25    28    1
    30    28    29    1
    31    29    30    1
    32    29    37    1
    33    30    31    1
    34    30    34    1
    35    31    32    1
    36    31    35    1
    37    32    33    1
    38    32    36    1
    39    33    41    1
    40    33    37    1
    41    41    42    1
    42    34    38    1
    43    35    39    1
    44    36    40    1
    45    42    43    1
@<TRIPOS>MOLECULE
GDU
 43 45 0 0 0
SMALL
GASTEIGER

@<TRIPOS>ATOM
      1 P          21.0957   71.3096   -2.1712 P.3     1  UNL1        0.2189
      2 O          21.7524   70.3481   -3.0844 O.2     1  UNL1       -0.5170
      3 O          21.9865   72.6472   -2.0696 O.3     1  UNL1       -0.4371
      4 O          19.6366   71.6784   -2.7385 O.3     1  UNL1       -0.3112
      5 C          18.8130   70.5281   -2.5410 C.3     1  UNL1        0.1811
      6 C          17.0961   70.4775   -5.6997 C.3     1  UNL1        0.2383
      7 C          17.0008   69.0196   -5.1816 C.3     1  UNL1        0.1895
      8 O          15.7990   68.3940   -5.6372 O.3     1  UNL1       -0.3779
      9 C          16.9703   69.2224   -3.6443 C.3     1  UNL1        0.1713
     10 C          17.5784   70.6223   -3.4394 C.3     1  UNL1        0.1764
     11 O          17.9537   71.1226   -4.7344 O.3     1  UNL1       -0.3308
     12 O          15.6262   69.1779   -3.1611 O.3     1  UNL1       -0.3794
     13 H          15.8012   67.4941   -5.2822 H       1  UNL1        0.2106
     14 H          15.2821   68.2991   -3.3711 H       1  UNL1        0.2105
     15 N          17.7001   70.5150   -7.0326 N.ar    1  UNL1       -0.2551
     16 C          16.9151   70.4485   -8.1224 C.ar    1  UNL1        0.3323
     17 N          17.4449   70.4846   -9.3594 N.ar    1  UNL1       -0.2743
     18 C          18.7782   70.5786   -9.5256 C.ar    1  UNL1        0.2626
     19 C          19.6177   70.6437   -8.3867 C.ar    1  UNL1        0.0795
     20 C          19.0600   70.6099   -7.1578 C.ar    1  UNL1        0.0869
     21 O          15.7106   70.3639   -7.9883 O.2     1  UNL1       -0.2464
     22 O          19.2589   70.6065  -10.6448 O.2     1  UNL1       -0.2670
     23 H          16.8631   70.4398  -10.1348 H       1  UNL1        0.1734
     24 O          20.9536   70.6489   -0.7098 O.3     1  UNL1       -0.2703
     25 P          22.2299   71.1283    0.1452 P.3     1  UNL1        0.2208
     26 O          22.4633   70.1800    1.2566 O.2     1  UNL1       -0.5170
     27 O          23.5286   71.1690   -0.8066 O.3     1  UNL1       -0.4371
     28 O          21.9566   72.5981    0.7411 O.3     1  UNL1       -0.2858
     29 C          20.8166   72.4943    1.5951 C.3     1  UNL1        0.2704
     30 C          19.7959   73.5679    1.2146 C.3     1  UNL1        0.1967
     31 C          20.4489   74.9469    1.3495 C.3     1  UNL1        0.1715
     32 C          21.0356   75.0754    2.7598 C.3     1  UNL1        0.1694
     33 C          21.9646   73.8875    3.0225 C.3     1  UNL1        0.1761
     34 O          19.3712   73.3678   -0.1348 O.3     1  UNL1       -0.3775
     35 O          19.4682   75.9652    1.1404 O.3     1  UNL1       -0.3794
     36 O          19.9773   75.0817    3.7189 O.3     1  UNL1       -0.3794
     37 O          21.2225   72.6709    2.9503 O.3     1  UNL1       -0.3258
     38 H          18.9740   72.4872   -0.1746 H       1  UNL1        0.2106
     39 H          19.1191   75.8387    0.2490 H       1  UNL1        0.2105
     40 H          19.4164   75.8405    3.5117 H       1  UNL1        0.2105
     41 C          22.5827   74.0240    4.4158 C.3     1  UNL1        0.1693
     42 O          21.7570   73.3542    5.3700 O.3     1  UNL1       -0.3794
     43 H          22.1809   73.4631    6.2324 H       1  UNL1        0.2105
@<TRIPOS>BOND
     1    15    16   ar
     2    15    20   ar
     3    15     6    1
     4    16    17   ar
     5    16    21    2
     6    17    18   ar
     7    17    23    1
     8    18    19   ar
     9    18    22    2
    10    19    20   ar
    11     6     7    1
    12     6    11    1
    13     7     8    1
    14     7     9    1
    15     8    13    1
    16     9    10    1
    17     9    12    1
    18    10    11    1
    19    10     5    1
    20    12    14    1
    21     5     4    1
    22     4     1    1
    23     1     2    2
    24     1     3    1
    25     1    24    1
    26    24    25    1
    27    25    26    2
    28    25    27    1
    29    25    28    1
    30    28    29    1
    31    29    30    1
    32    29    37    1
    33    30    31    1
    34    30    34    1
    35    31    32    1
    36    31    35    1
    37    32    33    1
    38    32    36    1
    39    33    41    1
    40    33    37    1
    41    41    42    1
    42    34    38    1
    43    35    39    1
    44    36    40    1
    45    42    43    1
@<TRIPOS>MOLECULE
GDU
 43 45 0 0 0
SMALL
GASTEIGER

@<TRIPOS>ATOM
      1 P          16.2330   70.2978   -2.7662 P.3     1  UNL1        0.2189
      2 O          15.6954   69.1196   -3.4820 O.2     1  UNL1       -0.5170
      3 O          15.9667   71.6240   -3.6398 O.3     1  UNL1       -0.4371
      4 O          15.5027   70.4390   -1.3401 O.3     1  UNL1       -0.3112
      5 C          15.1877   69.1159   -0.9037 C.3     1  UNL1        0.1811
      6 C          12.2907   68.0917    0.9634 C.3     1  UNL1        0.2383
      7 C          12.5986   69.5217    1.4763 C.3     1  UNL1        0.1895
      8 O          11.3994   70.1897    1.8749 O.3     1  UNL1       -0.3779
      9 C          13.2137   70.1919    0.2202 C.3     1  UNL1        0.1713
     10 C          13.6841   69.0071   -0.6438 C.3     1  UNL1        0.1764
     11 O          13.4008   67.8016    0.0875 O.3     1  UNL1       -0.3308
     12 O          12.2267   70.9617   -0.4692 O.3     1  UNL1       -0.3794
     13 H          11.6592   71.0694    2.1824 H       1  UNL1        0.2106
     14 H          11.9299   71.6489    0.1426 H       1  UNL1        0.2105
     15 N          12.2488   67.1404    2.0753 N.ar    1  UNL1       -0.2551
     16 C          13.3970   66.6884    2.6097 C.ar    1  UNL1        0.3323
     17 N          13.3863   65.8162    3.6349 N.ar    1  UNL1       -0.2743
     18 C          12.2182   65.3724    4.1379 C.ar    1  UNL1        0.2626
     19 C          11.0010   65.8355    3.5811 C.ar    1  UNL1        0.0795
     20 C          11.0404   66.7134    2.5563 C.ar    1  UNL1        0.0869
     21 O          14.4584   67.0801    2.1669 O.2     1  UNL1       -0.2464
     22 O          12.2076   64.5792    5.0627 O.2     1  UNL1       -0.2670
     23 H          14.2244   65.5037    4.0112 H       1  UNL1        0.1734
     24 O          17.8168   70.1126   -2.5435 O.3     1  UNL1       -0.2703
     25 P          18.5037   71.5292   -2.8773 P.3     1  UNL1        0.2208
     26 O          17.7733   72.6086   -2.1769 O.2     1  UNL1       -0.5170
     27 O          20.0368   71.5115   -2.3837 O.3     1  UNL1       -0.4371
     28 O          18.4553   71.7896   -4.4647 O.3     1  UNL1       -0.2858
     29 C          19.0499   70.6516   -5.0901 C.3     1  UNL1        0.2704
     30 C          20.1909   71.1089   -6.0003 C.3     1  UNL1        0.1967
     31 C          19.6340   72.0743   -7.0511 C.3     1  UNL1        0.1715
     32 C          18.4606   71.3958   -7.7670 C.3     1  UNL1        0.1694
     33 C          17.4492   70.9182   -6.7221 C.3     1  UNL1        0.1761
     34 O          21.1887   71.7709   -5.2210 O.3     1  UNL1       -0.3775
     35 O          20.6558   72.3955   -7.9973 O.3     1  UNL1       -0.3794
     36 O          18.9403   70.2806   -8.5194 O.3     1  UNL1       -0.3794
     37 O          18.0644   69.9642   -5.8575 O.3     1  UNL1       -0.3258
     38 H          21.5050   71.1298   -4.5699 H       1  UNL1        0.2106
     39 H          21.3756   72.8075   -7.5028 H       1  UNL1        0.2105
     40 H          19.5764   70.6271   -9.1587 H       1  UNL1        0.2105
     41 C          16.2566   70.2694   -7.4284 C.3     1  UNL1        0.1693
     42 O          16.1806   70.7500   -8.7716 O.3     1  UNL1       -0.3794
     43 H          15.4186   70.3175   -9.1809 H       1  UNL1        0.2105
@<TRIPOS>BOND
     1    15    16   ar
     2    15    20   ar
     3    15     6    1
     4    16    17   ar
     5    16    21    2
     6    17    18   ar
     7    17    23    1
     8    18    19   ar
     9    18    22    2
    10    19    20   ar
    11     6     7    1
    12     6    11    1
    13     7     8    1
    14     7     9    1
    15     8    13    1
    16     9    10    1
    17     9    12    1
    18    10    11    1
    19    10     5    1
    20    12    14    1
    21     5     4    1
    22     4     1    1
    23     1     2    2
    24     1     3    1
    25     1    24    1
    26    24    25    1
    27    25    26    2
    28    25    27    1
    29    25    28    1
    30    28    29    1
    31    29    30    1
    32    29    37    1
    33    30    31    1
    34    30    34    1
    35    31    32    1
    36    31    35    1
    37    32    33    1
    38    32    36    1
    39    33    41    1
    40    33    37    1
    41    41    42    1
    42    34    38    1
    43    35    39    1
    44    36    40    1
    45    42    43    1
@<TRIPOS>MOLECULE
GDU
 43 45 0 0 0
SMALL
GASTEIGER

@<TRIPOS>ATOM
      1 P          15.6598   70.7029   -2.2243 P.3     1  UNL1        0.2189
      2 O          15.0758   71.3958   -3.3941 O.2     1  UNL1       -0.5170
      3 O          15.8796   71.7597   -1.0293 O.3     1  UNL1       -0.4371
      4 O          14.6618   69.5401   -1.7355 O.3     1  UNL1       -0.3112
      5 C          14.4667   69.7250   -0.3326 C.3     1  UNL1        0.1811
      6 C          11.0744   68.5351   -0.3922 C.3     1  UNL1        0.2383
      7 C          11.6396   68.0315    0.9605 C.3     1  UNL1        0.1895
      8 O          10.6079   67.9531    1.9468 O.3     1  UNL1       -0.3779
      9 C          12.6633   69.1403    1.3178 C.3     1  UNL1        0.1713
     10 C          12.9696   69.8160   -0.0317 C.3     1  UNL1        0.1764
     11 O          12.2247   69.1154   -1.0429 O.3     1  UNL1       -0.3308
     12 O          12.0886   70.0746    2.2336 O.3     1  UNL1       -0.3794
     13 H          11.0235   67.6348    2.7603 H       1  UNL1        0.2106
     14 H          11.8649   69.5807    3.0341 H       1  UNL1        0.2105
     15 N          10.5442   67.4205   -1.1793 N.ar    1  UNL1       -0.2551
     16 C           9.6070   67.6515   -2.1155 C.ar    1  UNL1        0.3323
     17 N           9.1057   66.6449   -2.8552 N.ar    1  UNL1       -0.2743
     18 C           9.5304   65.3815   -2.6612 C.ar    1  UNL1        0.2626
     19 C          10.5130   65.1224   -1.6745 C.ar    1  UNL1        0.0795
     20 C          11.0020   66.1509   -0.9496 C.ar    1  UNL1        0.0869
     21 O           9.2145   68.7860   -2.3023 O.2     1  UNL1       -0.2464
     22 O           9.0737   64.4690   -3.3270 O.2     1  UNL1       -0.2670
     23 H           8.4329   66.8305   -3.5296 H       1  UNL1        0.1734
     24 O          17.0765   70.0581   -2.6359 O.3     1  UNL1       -0.2703
     25 P          17.8328   71.1412   -3.5550 P.3     1  UNL1        0.2208
     26 O          17.1760   72.4587   -3.4062 O.2     1  UNL1       -0.5170
     27 O          19.3720   71.2545   -3.0944 O.3     1  UNL1       -0.4371
     28 O          17.7675   70.6789   -5.0952 O.3     1  UNL1       -0.2858
     29 C          17.7964   71.8673   -5.8868 C.3     1  UNL1        0.2704
     30 C          16.5897   71.8825   -6.8265 C.3     1  UNL1        0.1967
     31 C          16.6362   70.6376   -7.7178 C.3     1  UNL1        0.1715
     32 C          18.0021   70.5820   -8.4111 C.3     1  UNL1        0.1694
     33 C          19.1025   70.6635   -7.3502 C.3     1  UNL1        0.1761
     34 O          15.3850   71.8785   -6.0585 O.3     1  UNL1       -0.3775
     35 O          15.5997   70.7108   -8.6991 O.3     1  UNL1       -0.3794
     36 O          18.1231   71.6795   -9.3172 O.3     1  UNL1       -0.3794
     37 O          19.0022   71.9008   -6.6467 O.3     1  UNL1       -0.3258
     38 H          15.4019   72.6737   -5.5088 H       1  UNL1        0.2106
     39 H          14.7629   70.7560   -8.2194 H       1  UNL1        0.2105
     40 H          17.4090   71.5904   -9.9616 H       1  UNL1        0.2105
     41 C          20.4710   70.5742   -8.0293 C.3     1  UNL1        0.1693
     42 O          20.8423   71.8628   -8.5219 O.3     1  UNL1       -0.3794
     43 H          21.7083   71.7635   -8.9408 H       1  UNL1        0.2105
@<TRIPOS>BOND
     1    15    16   ar
     2    15    20   ar
     3    15     6    1
     4    16    17   ar
     5    16    21    2
     6    17    18   ar
     7    17    23    1
     8    18    19   ar
     9    18    22    2
    10    19    20   ar
    11     6     7    1
    12     6    11    1
    13     7     8    1
    14     7     9    1
    15     8    13    1
    16     9    10    1
    17     9    12    1
    18    10    11    1
    19    10     5    1
    20    12    14    1
    21     5     4    1
    22     4     1    1
    23     1     2    2
    24     1     3    1
    25     1    24    1
    26    24    25    1
    27    25    26    2
    28    25    27    1
    29    25    28    1
    30    28    29    1
    31    29    30    1
    32    29    37    1
    33    30    31    1
    34    30    34    1
    35    31    32    1
    36    31    35    1
    37    32    33    1
    38    32    36    1
    39    33    41    1
    40    33    37    1
    41    41    42    1
    42    34    38    1
    43    35    39    1
    44    36    40    1
    45    42    43    1
@<TRIPOS>MOLECULE
GDU
 43 45 0 0 0
SMALL
GASTEIGER

@<TRIPOS>ATOM
      1 P          22.7827   72.9776   -4.9714 P.3     1  UNL1        0.2189
      2 O          22.7111   74.4221   -5.2843 O.2     1  UNL1       -0.5170
      3 O          24.1775   72.6569   -4.2335 O.3     1  UNL1       -0.4371
      4 O          21.5603   72.5759   -4.0064 O.3     1  UNL1       -0.3112
      5 C          21.8880   73.0565   -2.7017 C.3     1  UNL1        0.1811
      6 C          23.2396   71.4601    0.2227 C.3     1  UNL1        0.2383
      7 C          21.8275   71.9318    0.6544 C.3     1  UNL1        0.1895
      8 O          21.2758   71.0547    1.6391 O.3     1  UNL1       -0.3779
      9 C          21.0338   71.8401   -0.6748 C.3     1  UNL1        0.1713
     10 C          22.1224   71.8711   -1.7636 C.3     1  UNL1        0.1764
     11 O          23.3904   72.0160   -1.1009 O.3     1  UNL1       -0.3308
     12 O          20.2943   70.6187   -0.7319 O.3     1  UNL1       -0.3794
     13 H          20.4015   71.4026    1.8640 H       1  UNL1        0.2106
     14 H          19.6719   70.6332    0.0078 H       1  UNL1        0.2105
     15 N          24.2619   71.9922    1.1252 N.ar    1  UNL1       -0.2551
     16 C          25.0262   71.1471    1.8393 C.ar    1  UNL1        0.3323
     17 N          25.9755   71.6103    2.6736 N.ar    1  UNL1       -0.2743
     18 C          26.1692   72.9358    2.8144 C.ar    1  UNL1        0.2626
     19 C          25.3676   73.8380    2.0729 C.ar    1  UNL1        0.0795
     20 C          24.4256   73.3465    1.2401 C.ar    1  UNL1        0.0869
     21 O          24.8634   69.9488    1.7225 O.2     1  UNL1       -0.2464
     22 O          27.0250   73.3561    3.5729 O.2     1  UNL1       -0.2670
     23 H          26.5209   70.9859    3.1780 H       1  UNL1        0.1734
     24 O          22.6917   72.1286   -6.3365 O.3     1  UNL1       -0.2703
     25 P          21.2173   72.3659   -6.9362 P.3     1  UNL1        0.2208
     26 O          20.8626   73.7977   -6.8208 O.2     1  UNL1       -0.5170
     27 O          21.1925   71.9307   -8.4868 O.3     1  UNL1       -0.4371
     28 O          20.1537   71.4806   -6.1146 O.3     1  UNL1       -0.2858
     29 C          18.9039   72.1689   -6.1781 C.3     1  UNL1        0.2704
     30 C          17.9904   71.6700   -5.0574 C.3     1  UNL1        0.1967
     31 C          17.7851   70.1603   -5.2165 C.3     1  UNL1        0.1715
     32 C          17.2855   69.8808   -6.6384 C.3     1  UNL1        0.1694
     33 C          18.2544   70.5143   -7.6399 C.3     1  UNL1        0.1761
     34 O          18.5938   71.9417   -3.7913 O.3     1  UNL1       -0.3775
     35 O          16.8188   69.7046   -4.2672 O.3     1  UNL1       -0.3794
     36 O          15.9828   70.4419   -6.8061 O.3     1  UNL1       -0.3794
     37 O          18.2938   71.9271   -7.4438 O.3     1  UNL1       -0.3258
     38 H          18.7105   72.9000   -3.7378 H       1  UNL1        0.2106
     39 H          17.1682   69.9110   -3.3911 H       1  UNL1        0.2105
     40 H          15.4098   70.0191   -6.1533 H       1  UNL1        0.2105
     41 C          17.7831   70.2117   -9.0641 C.3     1  UNL1        0.1693
     42 O          18.2607   71.2268   -9.9487 O.3     1  UNL1       -0.3794
     43 H          17.9434   70.9990  -10.8334 H       1  UNL1        0.2105
@<TRIPOS>BOND
     1    15    16   ar
     2    15    20   ar
     3    15     6    1
     4    16    17   ar
     5    16    21    2
     6    17    18   ar
     7    17    23    1
     8    18    19   ar
     9    18    22    2
    10    19    20   ar
    11     6     7    1
    12     6    11    1
    13     7     8    1
    14     7     9    1
    15     8    13    1
    16     9    10    1
    17     9    12    1
    18    10    11    1
    19    10     5    1
    20    12    14    1
    21     5     4    1
    22     4     1    1
    23     1     2    2
    24     1     3    1
    25     1    24    1
    26    24    25    1
    27    25    26    2
    28    25    27    1
    29    25    28    1
    30    28    29    1
    31    29    30    1
    32    29    37    1
    33    30    31    1
    34    30    34    1
    35    31    32    1
    36    31    35    1
    37    32    33    1
    38    32    36    1
    39    33    41    1
    40    33    37    1
    41    41    42    1
    42    34    38    1
    43    35    39    1
    44    36    40    1
    45    42    43    1
@<TRIPOS>MOLECULE
GDU
 43 45 0 0 0
SMALL
GASTEIGER

@<TRIPOS>ATOM
      1 P          20.9676   71.4140   -1.6760 P.3     1  UNL1        0.2189
      2 O          20.8255   70.6350   -0.4260 O.2     1  UNL1       -0.5170
      3 O          21.8629   70.5844   -2.7264 O.3     1  UNL1       -0.4371
      4 O          19.5136   71.6860   -2.3075 O.3     1  UNL1       -0.3112
      5 C          18.8711   70.4160   -2.4291 C.3     1  UNL1        0.1811
      6 C          17.1291   70.4651   -5.5740 C.3     1  UNL1        0.2383
      7 C          17.0107   68.9984   -5.0865 C.3     1  UNL1        0.1895
      8 O          15.7940   68.4051   -5.5456 O.3     1  UNL1       -0.3779
      9 C          16.9959   69.1686   -3.5451 C.3     1  UNL1        0.1713
     10 C          17.6316   70.5523   -3.3152 C.3     1  UNL1        0.1764
     11 O          18.0061   71.0734   -4.6022 O.3     1  UNL1       -0.3308
     12 O          15.6550   69.1384   -3.0520 O.3     1  UNL1       -0.3794
     13 H          15.7821   67.4979   -5.2100 H       1  UNL1        0.2106
     14 H          15.2930   68.2709   -3.2779 H       1  UNL1        0.2105
     15 N          17.7233   70.5203   -6.9107 N.ar    1  UNL1       -0.2551
     16 C          16.9315   70.4552   -7.9956 C.ar    1  UNL1        0.3323
     17 N          17.4521   70.5074   -9.2358 N.ar    1  UNL1       -0.2743
     18 C          18.7832   70.6162   -9.4105 C.ar    1  UNL1        0.2626
     19 C          19.6300   70.6799   -8.2769 C.ar    1  UNL1        0.0795
     20 C          19.0813   70.6299   -7.0445 C.ar    1  UNL1        0.0869
     21 O          15.7288   70.3574   -7.8539 O.2     1  UNL1       -0.2464
     22 O          19.2558   70.6586  -10.5327 O.2     1  UNL1       -0.2670
     23 H          16.8653   70.4634  -10.0076 H       1  UNL1        0.1734
     24 O          21.6852   72.8187   -1.3532 O.3     1  UNL1       -0.2703
     25 P          20.8182   73.9635   -2.0796 P.3     1  UNL1        0.2208
     26 O          19.4391   73.4739   -2.2974 O.2     1  UNL1       -0.5170
     27 O          20.7798   75.2783   -1.1502 O.3     1  UNL1       -0.4371
     28 O          21.4890   74.3286   -3.4962 O.3     1  UNL1       -0.2858
     29 C          21.1110   73.2998   -4.4118 C.3     1  UNL1        0.2704
     30 C          22.2484   73.0596   -5.4058 C.3     1  UNL1        0.1967
     31 C          22.5434   74.3651   -6.1508 C.3     1  UNL1        0.1715
     32 C          21.2387   74.8841   -6.7656 C.3     1  UNL1        0.1694
     33 C          20.1776   74.9878   -5.6672 C.3     1  UNL1        0.1761
     34 O          23.4168   72.6337   -4.7024 O.3     1  UNL1       -0.3775
     35 O          23.5006   74.1226   -7.1840 O.3     1  UNL1       -0.3794
     36 O          20.7963   73.9815   -7.7802 O.3     1  UNL1       -0.3794
     37 O          19.9334   73.6969   -5.1105 O.3     1  UNL1       -0.3258
     38 H          23.1834   71.8152   -4.2438 H       1  UNL1        0.2106
     39 H          24.2976   73.7875   -6.7542 H       1  UNL1        0.2105
     40 H          21.4959   73.9433   -8.4453 H       1  UNL1        0.2105
     41 C          18.8802   75.5378   -6.2640 C.3     1  UNL1        0.1693
     42 O          18.1974   74.4942   -6.9607 O.3     1  UNL1       -0.3794
     43 H          17.3872   74.8810   -7.3201 H       1  UNL1        0.2105
@<TRIPOS>BOND
     1    15    16   ar
     2    15    20   ar
     3    15     6    1
     4    16    17   ar
     5    16    21    2
     6    17    18   ar
     7    17    23    1
     8    18    19   ar
     9    18    22    2
    10    19    20   ar
    11     6     7    1
    12     6    11    1
    13     7     8    1
    14     7     9    1
    15     8    13    1
    16     9    10    1
    17     9    12    1
    18    10    11    1
    19    10     5    1
    20    12    14    1
    21     5     4    1
    22     4     1    1
    23     1     2    2
    24     1     3    1
    25     1    24    1
    26    24    25    1
    27    25    26    2
    28    25    27    1
    29    25    28    1
    30    28    29    1
    31    29    30    1
    32    29    37    1
    33    30    31    1
    34    30    34    1
    35    31    32    1
    36    31    35    1
    37    32    33    1
    38    32    36    1
    39    33    41    1
    40    33    37    1
    41    41    42    1
    42    34    38    1
    43    35    39    1
    44    36    40    1
    45    42    43    1
@<TRIPOS>MOLECULE
GDU
 43 45 0 0 0
SMALL
GASTEIGER

@<TRIPOS>ATOM
      1 P          21.4551   73.6954   -3.8146 P.3     1  UNL1        0.2189
      2 O          22.5870   74.5701   -4.1932 O.2     1  UNL1       -0.5170
      3 O          20.8156   74.2140   -2.4308 O.3     1  UNL1       -0.4371
      4 O          20.3370   73.7337   -4.9701 O.3     1  UNL1       -0.3112
      5 C          19.0863   73.4405   -4.3455 C.3     1  UNL1        0.1811
      6 C          17.2219   70.4320   -3.7126 C.3     1  UNL1        0.2383
      7 C          16.5098   71.0832   -4.9259 C.3     1  UNL1        0.1895
      8 O          15.9337   70.0870   -5.7739 O.3     1  UNL1       -0.3779
      9 C          17.6808   71.8073   -5.6397 C.3     1  UNL1        0.1713
     10 C          18.7502   71.9612   -4.5423 C.3     1  UNL1        0.1764
     11 O          18.2025   71.4189   -3.3281 O.3     1  UNL1       -0.3308
     12 O          18.1743   71.0136   -6.7207 O.3     1  UNL1       -0.3794
     13 H          15.5081   70.5557   -6.5054 H       1  UNL1        0.2106
     14 H          17.4434   70.9039   -7.3440 H       1  UNL1        0.2105
     15 N          16.2744   70.1943   -2.6224 N.ar    1  UNL1       -0.2551
     16 C          16.3437   69.0522   -1.9159 C.ar    1  UNL1        0.3323
     17 N          15.4868   68.8106   -0.9063 N.ar    1  UNL1       -0.2743
     18 C          14.5347   69.7102   -0.5925 C.ar    1  UNL1        0.2626
     19 C          14.4462   70.9151   -1.3318 C.ar    1  UNL1        0.0795
     20 C          15.3208   71.1340   -2.3366 C.ar    1  UNL1        0.0869
     21 O          17.1975   68.2315   -2.1870 O.2     1  UNL1       -0.2464
     22 O          13.7556   69.4902    0.3181 O.2     1  UNL1       -0.2670
     23 H          15.5540   67.9828   -0.4042 H       1  UNL1        0.1734
     24 O          21.9839   72.1861   -3.6275 O.3     1  UNL1       -0.2703
     25 P          23.0853   72.2196   -2.4546 P.3     1  UNL1        0.2208
     26 O          23.8673   70.9638   -2.4765 O.2     1  UNL1       -0.5170
     27 O          24.0737   73.4707   -2.6824 O.3     1  UNL1       -0.4371
     28 O          22.3502   72.3704   -1.0308 O.3     1  UNL1       -0.2858
     29 C          23.0664   71.5517   -0.1053 C.3     1  UNL1        0.2704
     30 C          22.1255   71.1080    1.0159 C.3     1  UNL1        0.1967
     31 C          21.5626   72.3493    1.7150 C.3     1  UNL1        0.1715
     32 C          22.7326   73.2352    2.1576 C.3     1  UNL1        0.1694
     33 C          23.6270   73.5194    0.9483 C.3     1  UNL1        0.1761
     34 O          21.0540   70.3396    0.4656 O.3     1  UNL1       -0.3775
     35 O          20.7990   71.9529    2.8561 O.3     1  UNL1       -0.3794
     36 O          23.4859   72.5626    3.1675 O.3     1  UNL1       -0.3794
     37 O          24.1539   72.2943    0.4408 O.3     1  UNL1       -0.3258
     38 H          21.4542   69.5744    0.0306 H       1  UNL1        0.2106
     39 H          20.0843   71.3899    2.5327 H       1  UNL1        0.2105
     40 H          22.8829   72.3995    3.9045 H       1  UNL1        0.2105
     41 C          24.7801   74.4319    1.3722 C.3     1  UNL1        0.1693
     42 O          25.0704   75.3520    0.3185 O.3     1  UNL1       -0.3794
     43 H          25.8001   75.9076    0.6253 H       1  UNL1        0.2105
@<TRIPOS>BOND
     1    15    16   ar
     2    15    20   ar
     3    15     6    1
     4    16    17   ar
     5    16    21    2
     6    17    18   ar
     7    17    23    1
     8    18    19   ar
     9    18    22    2
    10    19    20   ar
    11     6     7    1
    12     6    11    1
    13     7     8    1
    14     7     9    1
    15     8    13    1
    16     9    10    1
    17     9    12    1
    18    10    11    1
    19    10     5    1
    20    12    14    1
    21     5     4    1
    22     4     1    1
    23     1     2    2
    24     1     3    1
    25     1    24    1
    26    24    25    1
    27    25    26    2
    28    25    27    1
    29    25    28    1
    30    28    29    1
    31    29    30    1
    32    29    37    1
    33    30    31    1
    34    30    34    1
    35    31    32    1
    36    31    35    1
    37    32    33    1
    38    32    36    1
    39    33    41    1
    40    33    37    1
    41    41    42    1
    42    34    38    1
    43    35    39    1
    44    36    40    1
    45    42    43    1
@<TRIPOS>MOLECULE
GDU
 43 45 0 0 0
SMALL
GASTEIGER

@<TRIPOS>ATOM
      1 P          22.7589   71.3865   -2.6212 P.3     1  UNL1        0.2189
      2 O          22.5220   72.8470   -2.6079 O.2     1  UNL1       -0.5170
      3 O          24.1676   71.0779   -3.3378 O.3     1  UNL1       -0.4371
      4 O          22.7928   70.8342   -1.1110 O.3     1  UNL1       -0.3112
      5 C          21.4864   71.0327   -0.5684 C.3     1  UNL1        0.1811
      6 C          23.2240   71.9153    2.4531 C.3     1  UNL1        0.2383
      7 C          22.6216   73.2507    1.9464 C.3     1  UNL1        0.1895
      8 O          22.3137   74.1186    3.0396 O.3     1  UNL1       -0.3779
      9 C          21.3275   72.7748    1.2365 C.3     1  UNL1        0.1713
     10 C          21.5906   71.2874    0.9364 C.3     1  UNL1        0.1764
     11 O          22.9206   70.9848    1.3921 O.3     1  UNL1       -0.3308
     12 O          20.1994   72.9258    2.1005 O.3     1  UNL1       -0.3794
     13 H          21.9448   74.9275    2.6582 H       1  UNL1        0.2106
     14 H          20.1227   73.8689    2.2988 H       1  UNL1        0.2105
     15 N          24.6714   72.0360    2.6352 N.ar    1  UNL1       -0.2551
     16 C          25.4539   70.9514    2.4949 C.ar    1  UNL1        0.3323
     17 N          26.7879   71.0359    2.6535 N.ar    1  UNL1       -0.2743
     18 C          27.3622   72.2134    2.9667 C.ar    1  UNL1        0.2626
     19 C          26.5498   73.3630    3.1233 C.ar    1  UNL1        0.0795
     20 C          25.2151   73.2511    2.9544 C.ar    1  UNL1        0.0869
     21 O          24.9503   69.8825    2.2120 O.2     1  UNL1       -0.2464
     22 O          28.5691   72.2899    3.1152 O.2     1  UNL1       -0.2670
     23 H          27.3379   70.2439    2.5443 H       1  UNL1        0.1734
     24 O          21.5744   70.6590   -3.4336 O.3     1  UNL1       -0.2703
     25 P          21.1419   71.6559   -4.6206 P.3     1  UNL1        0.2208
     26 O          20.6267   72.9166   -4.0426 O.2     1  UNL1       -0.5170
     27 O          22.4208   71.9739   -5.5466 O.3     1  UNL1       -0.4371
     28 O          19.9941   70.9646   -5.5121 O.3     1  UNL1       -0.2858
     29 C          19.3847   72.0023   -6.2812 C.3     1  UNL1        0.2704
     30 C          17.8981   72.0888   -5.9319 C.3     1  UNL1        0.1967
     31 C          17.2374   70.7385   -6.2259 C.3     1  UNL1        0.1715
     32 C          17.5451   70.3477   -7.6758 C.3     1  UNL1        0.1694
     33 C          19.0598   70.3913   -7.8924 C.3     1  UNL1        0.1761
     34 O          17.7496   72.4045   -4.5464 O.3     1  UNL1       -0.3775
     35 O          15.8239   70.8461   -6.0447 O.3     1  UNL1       -0.3794
     36 O          16.9040   71.2643   -8.5640 O.3     1  UNL1       -0.3794
     37 O          19.5400   71.7163   -7.6693 O.3     1  UNL1       -0.3258
     38 H          18.1853   73.2562   -4.4061 H       1  UNL1        0.2106
     39 H          15.6784   71.1043   -5.1258 H       1  UNL1        0.2105
     40 H          15.9557   71.2072   -8.3886 H       1  UNL1        0.2105
     41 C          19.3803   69.9694   -9.3280 C.3     1  UNL1        0.1693
     42 O          19.1301   71.0633  -10.2122 O.3     1  UNL1       -0.3794
     43 H          19.3447   70.7570  -11.1041 H       1  UNL1        0.2105
@<TRIPOS>BOND
     1    15    16   ar
     2    15    20   ar
     3    15     6    1
     4    16    17   ar
     5    16    21    2
     6    17    18   ar
     7    17    23    1
     8    18    19   ar
     9    18    22    2
    10    19    20   ar
    11     6     7    1
    12     6    11    1
    13     7     8    1
    14     7     9    1
    15     8    13    1
    16     9    10    1
    17     9    12    1
    18    10    11    1
    19    10     5    1
    20    12    14    1
    21     5     4    1
    22     4     1    1
    23     1     2    2
    24     1     3    1
    25     1    24    1
    26    24    25    1
    27    25    26    2
    28    25    27    1
    29    25    28    1
    30    28    29    1
    31    29    30    1
    32    29    37    1
    33    30    31    1
    34    30    34    1
    35    31    32    1
    36    31    35    1
    37    32    33    1
    38    32    36    1
    39    33    41    1
    40    33    37    1
    41    41    42    1
    42    34    38    1
    43    35    39    1
    44    36    40    1
    45    42    43    1
@<TRIPOS>MOLECULE
GDU
 43 45 0 0 0
SMALL
GASTEIGER

@<TRIPOS>ATOM
      1 P          15.1283   70.3772   -1.7747 P.3     1  UNL1        0.2189
      2 O          13.7321   70.8667   -1.7522 O.2     1  UNL1       -0.5170
      3 O          16.1290   71.5946   -1.4436 O.3     1  UNL1       -0.4371
      4 O          15.3093   69.2192   -0.6733 O.3     1  UNL1       -0.3112
      5 C          14.1580   69.2676    0.1710 C.3     1  UNL1        0.1811
      6 C          13.1716   66.6807    2.4649 C.3     1  UNL1        0.2383
      7 C          11.8356   67.2844    1.9614 C.3     1  UNL1        0.1895
      8 O          10.8039   66.2952    1.9429 O.3     1  UNL1       -0.3779
      9 C          12.2021   67.7284    0.5213 C.3     1  UNL1        0.1713
     10 C          13.7374   67.8452    0.5450 C.3     1  UNL1        0.1764
     11 O          14.1718   67.5430    1.8822 O.3     1  UNL1       -0.3308
     12 O          11.7830   66.7448   -0.4267 O.3     1  UNL1       -0.3794
     13 H          10.0033   66.7333    1.6220 H       1  UNL1        0.2106
     14 H          10.8215   66.6756   -0.3520 H       1  UNL1        0.2105
     15 N          13.2414   66.7241    3.9265 N.ar    1  UNL1       -0.2551
     16 C          12.9269   65.6297    4.6418 C.ar    1  UNL1        0.3323
     17 N          12.9862   65.6420    5.9865 N.ar    1  UNL1       -0.2743
     18 C          13.3541   66.7604    6.6408 C.ar    1  UNL1        0.2626
     19 C          13.6826   67.9225    5.9005 C.ar    1  UNL1        0.0795
     20 C          13.6189   67.8814    4.5526 C.ar    1  UNL1        0.0869
     21 O          12.5937   64.6133    4.0657 O.2     1  UNL1       -0.2464
     22 O          13.4035   66.7739    7.8581 O.2     1  UNL1       -0.2670
     23 H          12.7599   64.8418    6.4867 H       1  UNL1        0.1734
     24 O          15.4662   69.7886   -3.2347 O.3     1  UNL1       -0.2703
     25 P          17.0664   69.6394   -3.3188 P.3     1  UNL1        0.2208
     26 O          17.6479   69.7956   -1.9673 O.2     1  UNL1       -0.5170
     27 O          17.4397   68.1836   -3.8981 O.3     1  UNL1       -0.4371
     28 O          17.6616   70.7726   -4.2944 O.3     1  UNL1       -0.2858
     29 C          18.2656   70.0952   -5.3972 C.3     1  UNL1        0.2704
     30 C          19.6308   70.7189   -5.6919 C.3     1  UNL1        0.1967
     31 C          19.4419   72.2057   -6.0081 C.3     1  UNL1        0.1715
     32 C          18.4072   72.3402   -7.1311 C.3     1  UNL1        0.1694
     33 C          17.1332   71.5947   -6.7259 C.3     1  UNL1        0.1761
     34 O          20.4791   70.5746   -4.5514 O.3     1  UNL1       -0.3775
     35 O          20.6862   72.7690   -6.4285 O.3     1  UNL1       -0.3794
     36 O          18.9327   71.7790   -8.3347 O.3     1  UNL1       -0.3794
     37 O          17.4237   70.2099   -6.5420 O.3     1  UNL1       -0.3258
     38 H          20.5640   69.6259   -4.3850 H       1  UNL1        0.2106
     39 H          21.3074   72.6516   -5.6987 H       1  UNL1        0.2105
     40 H          19.7344   72.2742   -8.5477 H       1  UNL1        0.2105
     41 C          16.0809   71.7516   -7.8259 C.3     1  UNL1        0.1693
     42 O          16.1331   70.6217   -8.6986 O.3     1  UNL1       -0.3794
     43 H          15.4558   70.7590   -9.3751 H       1  UNL1        0.2105
@<TRIPOS>BOND
     1    15    16   ar
     2    15    20   ar
     3    15     6    1
     4    16    17   ar
     5    16    21    2
     6    17    18   ar
     7    17    23    1
     8    18    19   ar
     9    18    22    2
    10    19    20   ar
    11     6     7    1
    12     6    11    1
    13     7     8    1
    14     7     9    1
    15     8    13    1
    16     9    10    1
    17     9    12    1
    18    10    11    1
    19    10     5    1
    20    12    14    1
    21     5     4    1
    22     4     1    1
    23     1     2    2
    24     1     3    1
    25     1    24    1
    26    24    25    1
    27    25    26    2
    28    25    27    1
    29    25    28    1
    30    28    29    1
    31    29    30    1
    32    29    37    1
    33    30    31    1
    34    30    34    1
    35    31    32    1
    36    31    35    1
    37    32    33    1
    38    32    36    1
    39    33    41    1
    40    33    37    1
    41    41    42    1
    42    34    38    1
    43    35    39    1
    44    36    40    1
    45    42    43    1
@<TRIPOS>MOLECULE
GDU
 43 45 0 0 0
SMALL
GASTEIGER

@<TRIPOS>ATOM
      1 P          16.1463   69.8506   -2.3286 P.3     1  UNL1        0.2189
      2 O          16.5313   71.1076   -1.6494 O.2     1  UNL1       -0.5170
      3 O          17.0966   68.6537   -1.8211 O.3     1  UNL1       -0.4371
      4 O          14.6143   69.5019   -1.9849 O.3     1  UNL1       -0.3112
      5 C          14.5502   69.2611   -0.5783 C.3     1  UNL1        0.1811
      6 C          12.4294   67.3300    1.5897 C.3     1  UNL1        0.2383
      7 C          11.7561   68.7249    1.5282 C.3     1  UNL1        0.1895
      8 O          10.3383   68.6135    1.6723 O.3     1  UNL1       -0.3779
      9 C          12.1311   69.2041    0.1017 C.3     1  UNL1        0.1713
     10 C          13.3595   68.3521   -0.2684 C.3     1  UNL1        0.1764
     11 O          13.6627   67.5189    0.8638 O.3     1  UNL1       -0.3308
     12 O          11.0543   68.9621   -0.8059 O.3     1  UNL1       -0.3794
     13 H           9.9819   69.5117    1.6257 H       1  UNL1        0.2106
     14 H          10.2993   69.4757   -0.4880 H       1  UNL1        0.2105
     15 N          12.7005   66.9464    2.9761 N.ar    1  UNL1       -0.2551
     16 C          12.9005   67.8984    3.9045 C.ar    1  UNL1        0.3323
     17 N          13.1481   67.5726    5.1869 N.ar    1  UNL1       -0.2743
     18 C          13.2095   66.2799    5.5604 C.ar    1  UNL1        0.2626
     19 C          13.0066   65.2663    4.5921 C.ar    1  UNL1        0.0795
     20 C          12.7558   65.6208    3.3138 C.ar    1  UNL1        0.0869
     21 O          12.8477   69.0687    3.5827 O.2     1  UNL1       -0.2464
     22 O          13.4383   65.9840    6.7199 O.2     1  UNL1       -0.2670
     23 H          13.2857   68.2728    5.8446 H       1  UNL1        0.1734
     24 O          16.3135   70.0287   -3.9200 O.3     1  UNL1       -0.2703
     25 P          17.5212   71.0674   -4.1490 P.3     1  UNL1        0.2208
     26 O          16.9703   72.4211   -4.3794 O.2     1  UNL1       -0.5170
     27 O          18.4658   71.0878   -2.8446 O.3     1  UNL1       -0.4371
     28 O          18.3854   70.6137   -5.4287 O.3     1  UNL1       -0.2858
     29 C          18.3694   71.7060   -6.3486 C.3     1  UNL1        0.2704
     30 C          18.3086   71.1665   -7.7785 C.3     1  UNL1        0.1967
     31 C          19.5255   70.2695   -8.0251 C.3     1  UNL1        0.1715
     32 C          20.7937   71.0578   -7.6787 C.3     1  UNL1        0.1694
     33 C          20.6666   71.6042   -6.2545 C.3     1  UNL1        0.1761
     34 O          17.1102   70.4087   -7.9537 O.3     1  UNL1       -0.3775
     35 O          19.5618   69.8764   -9.3987 O.3     1  UNL1       -0.3794
     36 O          20.9502   72.1393   -8.5984 O.3     1  UNL1       -0.3794
     37 O          19.5490   72.4878   -6.1759 O.3     1  UNL1       -0.3258
     38 H          16.3725   71.0098   -7.7820 H       1  UNL1        0.2106
     39 H          18.7428   69.3962   -9.5741 H       1  UNL1        0.2105
     40 H          21.0201   71.7495   -9.4796 H       1  UNL1        0.2105
     41 C          21.9427   72.3644   -5.8860 C.3     1  UNL1        0.1693
     42 O          22.9771   72.0355   -6.8149 O.3     1  UNL1       -0.3794
     43 H          23.7615   72.5345   -6.5485 H       1  UNL1        0.2105
@<TRIPOS>BOND
     1    15    16   ar
     2    15    20   ar
     3    15     6    1
     4    16    17   ar
     5    16    21    2
     6    17    18   ar
     7    17    23    1
     8    18    19   ar
     9    18    22    2
    10    19    20   ar
    11     6     7    1
    12     6    11    1
    13     7     8    1
    14     7     9    1
    15     8    13    1
    16     9    10    1
    17     9    12    1
    18    10    11    1
    19    10     5    1
    20    12    14    1
    21     5     4    1
    22     4     1    1
    23     1     2    2
    24     1     3    1
    25     1    24    1
    26    24    25    1
    27    25    26    2
    28    25    27    1
    29    25    28    1
    30    28    29    1
    31    29    30    1
    32    29    37    1
    33    30    31    1
    34    30    34    1
    35    31    32    1
    36    31    35    1
    37    32    33    1
    38    32    36    1
    39    33    41    1
    40    33    37    1
    41    41    42    1
    42    34    38    1
    43    35    39    1
    44    36    40    1
    45    42    43    1
@<TRIPOS>MOLECULE
GDU
 43 45 0 0 0
SMALL
GASTEIGER

@<TRIPOS>ATOM
      1 P          21.0588   71.5508   -1.6754 P.3     1  UNL1        0.2189
      2 O          20.4199   70.9859   -0.4662 O.2     1  UNL1       -0.5170
      3 O          22.4285   70.7600   -1.9778 O.3     1  UNL1       -0.4371
      4 O          20.0633   71.3989   -2.9295 O.3     1  UNL1       -0.3112
      5 C          19.1355   70.3645   -2.5983 C.3     1  UNL1        0.1811
      6 C          17.2697   70.4135   -5.6714 C.3     1  UNL1        0.2383
      7 C          17.1196   68.9621   -5.1482 C.3     1  UNL1        0.1895
      8 O          15.8650   68.4040   -5.5454 O.3     1  UNL1       -0.3779
      9 C          17.1736   69.1635   -3.6114 C.3     1  UNL1        0.1713
     10 C          17.8664   70.5277   -3.4368 C.3     1  UNL1        0.1764
     11 O          18.2063   71.0091   -4.7487 O.3     1  UNL1       -0.3308
     12 O          15.8537   69.1916   -3.0645 O.3     1  UNL1       -0.3794
     13 H          15.8348   67.5047   -5.1902 H       1  UNL1        0.2106
     14 H          15.4524   68.3334   -3.2571 H       1  UNL1        0.2105
     15 N          17.8104   70.4204   -7.0317 N.ar    1  UNL1       -0.2551
     16 C          16.9717   70.4266   -8.0827 C.ar    1  UNL1        0.3323
     17 N          17.4430   70.4365   -9.3435 N.ar    1  UNL1       -0.2743
     18 C          18.7701   70.4305   -9.5734 C.ar    1  UNL1        0.2626
     19 C          19.6656   70.4182   -8.4760 C.ar    1  UNL1        0.0795
     20 C          19.1661   70.4127   -7.2218 C.ar    1  UNL1        0.0869
     21 O          15.7719   70.4326   -7.8910 O.2     1  UNL1       -0.2464
     22 O          19.1977   70.4347  -10.7143 O.2     1  UNL1       -0.2670
     23 H          16.8232   70.4453  -10.0902 H       1  UNL1        0.1734
     24 O          21.3830   73.1090   -1.4316 O.3     1  UNL1       -0.2703
     25 P          20.0616   73.9305   -1.8427 P.3     1  UNL1        0.2208
     26 O          18.9135   73.4500   -1.0425 O.2     1  UNL1       -0.5170
     27 O          20.2946   75.4985   -1.5581 O.3     1  UNL1       -0.4371
     28 O          19.7563   73.7099   -3.4073 O.3     1  UNL1       -0.2858
     29 C          20.3223   74.8223   -4.1014 C.3     1  UNL1        0.2704
     30 C          19.3716   75.2651   -5.2147 C.3     1  UNL1        0.1967
     31 C          19.1424   74.0907   -6.1711 C.3     1  UNL1        0.1715
     32 C          20.5046   73.5714   -6.6448 C.3     1  UNL1        0.1694
     33 C          21.3693   73.2550   -5.4220 C.3     1  UNL1        0.1761
     34 O          18.1254   75.6717   -4.6464 O.3     1  UNL1       -0.3775
     35 O          18.3758   74.5291   -7.2948 O.3     1  UNL1       -0.3794
     36 O          21.1443   74.5678   -7.4435 O.3     1  UNL1       -0.3794
     37 O          21.5781   74.4429   -4.6597 O.3     1  UNL1       -0.3258
     38 H          18.3183   76.4060   -4.0476 H       1  UNL1        0.2106
     39 H          17.5358   74.8570   -6.9497 H       1  UNL1        0.2105
     40 H          20.5633   74.7388   -8.1961 H       1  UNL1        0.2105
     41 C          22.7199   72.7031   -5.8836 C.3     1  UNL1        0.1693
     42 O          22.5724   72.0993   -7.1699 O.3     1  UNL1       -0.3794
     43 H          23.4438   71.7658   -7.4242 H       1  UNL1        0.2105
@<TRIPOS>BOND
     1    15    16   ar
     2    15    20   ar
     3    15     6    1
     4    16    17   ar
     5    16    21    2
     6    17    18   ar
     7    17    23    1
     8    18    19   ar
     9    18    22    2
    10    19    20   ar
    11     6     7    1
    12     6    11    1
    13     7     8    1
    14     7     9    1
    15     8    13    1
    16     9    10    1
    17     9    12    1
    18    10    11    1
    19    10     5    1
    20    12    14    1
    21     5     4    1
    22     4     1    1
    23     1     2    2
    24     1     3    1
    25     1    24    1
    26    24    25    1
    27    25    26    2
    28    25    27    1
    29    25    28    1
    30    28    29    1
    31    29    30    1
    32    29    37    1
    33    30    31    1
    34    30    34    1
    35    31    32    1
    36    31    35    1
    37    32    33    1
    38    32    36    1
    39    33    41    1
    40    33    37    1
    41    41    42    1
    42    34    38    1
    43    35    39    1
    44    36    40    1
    45    42    43    1
@<TRIPOS>MOLECULE
GDU
 43 45 0 0 0
SMALL
GASTEIGER

@<TRIPOS>ATOM
      1 P          22.8057   71.7822   -2.7045 P.3     1  UNL1        0.2189
      2 O          22.8197   73.2488   -2.5093 O.2     1  UNL1       -0.5170
      3 O          24.1493   71.3296   -3.4680 O.3     1  UNL1       -0.4371
      4 O          22.7289   71.0507   -1.2742 O.3     1  UNL1       -0.3112
      5 C          21.4584   71.3784   -0.7095 C.3     1  UNL1        0.1811
      6 C          23.2071   71.8848    2.3911 C.3     1  UNL1        0.2383
      7 C          22.5644   73.2602    2.0777 C.3     1  UNL1        0.1895
      8 O          22.2466   73.9608    3.2824 O.3     1  UNL1       -0.3779
      9 C          21.2750   72.8510    1.3192 C.3     1  UNL1        0.1713
     10 C          21.5733   71.4267    0.8152 C.3     1  UNL1        0.1764
     11 O          22.9159   71.1009    1.2145 O.3     1  UNL1       -0.3308
     12 O          20.1533   72.8510    2.2045 O.3     1  UNL1       -0.3794
     13 H          21.8524   74.8041    3.0188 H       1  UNL1        0.2106
     14 H          20.0544   73.7555    2.5314 H       1  UNL1        0.2105
     15 N          24.6529   72.0189    2.5767 N.ar    1  UNL1       -0.2551
     16 C          25.4379   70.9292    2.5081 C.ar    1  UNL1        0.3323
     17 N          26.7705   71.0256    2.6716 N.ar    1  UNL1       -0.2743
     18 C          27.3407   72.2208    2.9177 C.ar    1  UNL1        0.2626
     19 C          26.5256   73.3764    2.9984 C.ar    1  UNL1        0.0795
     20 C          25.1924   73.2520    2.8263 C.ar    1  UNL1        0.0869
     21 O          24.9380   69.8444    2.2862 O.2     1  UNL1       -0.2464
     22 O          28.5463   72.3084    3.0706 O.2     1  UNL1       -0.2670
     23 H          27.3224   70.2294    2.6145 H       1  UNL1        0.1734
     24 O          21.5239   71.3716   -3.5882 O.3     1  UNL1       -0.2703
     25 P          21.4177   72.4445   -4.7830 P.3     1  UNL1        0.2208
     26 O          21.5139   73.8124   -4.2273 O.2     1  UNL1       -0.5170
     27 O          22.6197   72.2046   -5.8278 O.3     1  UNL1       -0.4371
     28 O          20.0080   72.2694   -5.5393 O.3     1  UNL1       -0.2858
     29 C          20.0322   70.9887   -6.1709 C.3     1  UNL1        0.2704
     30 C          19.6500   71.1403   -7.6441 C.3     1  UNL1        0.1967
     31 C          18.2530   71.7620   -7.7353 C.3     1  UNL1        0.1715
     32 C          17.2864   70.9210   -6.8938 C.3     1  UNL1        0.1694
     33 C          17.8475   70.7877   -5.4759 C.3     1  UNL1        0.1761
     34 O          20.5960   71.9869   -8.2994 O.3     1  UNL1       -0.3775
     35 O          17.8211   71.7747   -9.0976 O.3     1  UNL1       -0.3794
     36 O          17.1444   69.6264   -7.4803 O.3     1  UNL1       -0.3794
     37 O          19.1084   70.1212   -5.5179 O.3     1  UNL1       -0.3258
     38 H          21.4596   71.5612   -8.2110 H       1  UNL1        0.2106
     39 H          18.4625   72.3028   -9.5896 H       1  UNL1        0.2105
     40 H          16.7950   69.7595   -8.3711 H       1  UNL1        0.2105
     41 C          16.8728   69.9782   -4.6176 C.3     1  UNL1        0.1693
     42 O          17.5242   68.7989   -4.1423 O.3     1  UNL1       -0.3794
     43 H          16.8779   68.3186   -3.6067 H       1  UNL1        0.2105
@<TRIPOS>BOND
     1    15    16   ar
     2    15    20   ar
     3    15     6    1
     4    16    17   ar
     5    16    21    2
     6    17    18   ar
     7    17    23    1
     8    18    19   ar
     9    18    22    2
    10    19    20   ar
    11     6     7    1
    12     6    11    1
    13     7     8    1
    14     7     9    1
    15     8    13    1
    16     9    10    1
    17     9    12    1
    18    10    11    1
    19    10     5    1
    20    12    14    1
    21     5     4    1
    22     4     1    1
    23     1     2    2
    24     1     3    1
    25     1    24    1
    26    24    25    1
    27    25    26    2
    28    25    27    1
    29    25    28    1
    30    28    29    1
    31    29    30    1
    32    29    37    1
    33    30    31    1
    34    30    34    1
    35    31    32    1
    36    31    35    1
    37    32    33    1
    38    32    36    1
    39    33    41    1
    40    33    37    1
    41    41    42    1
    42    34    38    1
    43    35    39    1
    44    36    40    1
    45    42    43    1
@<TRIPOS>MOLECULE
GDU
 43 45 0 0 0
SMALL
GASTEIGER

@<TRIPOS>ATOM
      1 P          15.7915   70.4228   -2.5203 P.3     1  UNL1        0.2189
      2 O          15.8433   69.1376   -3.2519 O.2     1  UNL1       -0.5170
      3 O          15.4299   71.6101   -3.5462 O.3     1  UNL1       -0.4371
      4 O          14.6665   70.3430   -1.3737 O.3     1  UNL1       -0.3112
      5 C          14.6977   69.0124   -0.8551 C.3     1  UNL1        0.1811
      6 C          11.5181   67.7672    0.2705 C.3     1  UNL1        0.2383
      7 C          12.5414   66.7013    0.7391 C.3     1  UNL1        0.1895
      8 O          12.1040   66.0696    1.9444 O.3     1  UNL1       -0.3779
      9 C          13.8096   67.5575    0.9921 C.3     1  UNL1        0.1713
     10 C          13.5709   68.8337    0.1639 C.3     1  UNL1        0.1764
     11 O          12.3152   68.6753   -0.5191 O.3     1  UNL1       -0.3308
     12 O          13.9325   67.8700    2.3810 O.3     1  UNL1       -0.3794
     13 H          12.7813   65.4207    2.1809 H       1  UNL1        0.2106
     14 H          14.0195   67.0294    2.8506 H       1  UNL1        0.2105
     15 N          10.4706   67.1548   -0.5483 N.ar    1  UNL1       -0.2551
     16 C           9.3405   66.7160    0.0335 C.ar    1  UNL1        0.3323
     17 N           8.3604   66.1524   -0.6971 N.ar    1  UNL1       -0.2743
     18 C           8.5015   66.0094   -2.0289 C.ar    1  UNL1        0.2626
     19 C           9.6889   66.4619   -2.6546 C.ar    1  UNL1        0.0795
     20 C          10.6542   67.0273   -1.8989 C.ar    1  UNL1        0.0869
     21 O           9.1987   66.8385    1.2339 O.2     1  UNL1       -0.2464
     22 O           7.6169   65.4951   -2.6904 O.2     1  UNL1       -0.2670
     23 H           7.5496   65.8452   -0.2612 H       1  UNL1        0.1734
     24 O          17.2252   70.7145   -1.8479 O.3     1  UNL1       -0.2703
     25 P          18.3417   70.2770   -2.9212 P.3     1  UNL1        0.2208
     26 O          19.6884   70.5029   -2.3516 O.2     1  UNL1       -0.5170
     27 O          18.1638   68.7156   -3.2741 O.3     1  UNL1       -0.4371
     28 O          18.1711   71.1516   -4.2614 O.3     1  UNL1       -0.2858
     29 C          18.6267   70.3419   -5.3461 C.3     1  UNL1        0.2704
     30 C          19.8257   71.0153   -6.0156 C.3     1  UNL1        0.1967
     31 C          19.4048   72.4010   -6.5146 C.3     1  UNL1        0.1715
     32 C          18.1643   72.2465   -7.4016 C.3     1  UNL1        0.1694
     33 C          17.0897   71.4809   -6.6256 C.3     1  UNL1        0.1761
     34 O          20.8893   71.1478   -5.0709 O.3     1  UNL1       -0.3775
     35 O          20.4691   72.9828   -7.2705 O.3     1  UNL1       -0.3794
     36 O          18.5101   71.5262   -8.5855 O.3     1  UNL1       -0.3794
     37 O          17.5720   70.1802   -6.2917 O.3     1  UNL1       -0.3258
     38 H          21.1162   70.2543   -4.7792 H       1  UNL1        0.2106
     39 H          21.2289   73.0496   -6.6785 H       1  UNL1        0.2105
     40 H          19.1913   72.0409   -9.0374 H       1  UNL1        0.2105
     41 C          15.8338   71.3510   -7.4903 C.3     1  UNL1        0.1693
     42 O          16.1458   70.6152   -8.6745 O.3     1  UNL1       -0.3794
     43 H          15.3297   70.5553   -9.1900 H       1  UNL1        0.2105
@<TRIPOS>BOND
     1    15    16   ar
     2    15    20   ar
     3    15     6    1
     4    16    17   ar
     5    16    21    2
     6    17    18   ar
     7    17    23    1
     8    18    19   ar
     9    18    22    2
    10    19    20   ar
    11     6     7    1
    12     6    11    1
    13     7     8    1
    14     7     9    1
    15     8    13    1
    16     9    10    1
    17     9    12    1
    18    10    11    1
    19    10     5    1
    20    12    14    1
    21     5     4    1
    22     4     1    1
    23     1     2    2
    24     1     3    1
    25     1    24    1
    26    24    25    1
    27    25    26    2
    28    25    27    1
    29    25    28    1
    30    28    29    1
    31    29    30    1
    32    29    37    1
    33    30    31    1
    34    30    34    1
    35    31    32    1
    36    31    35    1
    37    32    33    1
    38    32    36    1
    39    33    41    1
    40    33    37    1
    41    41    42    1
    42    34    38    1
    43    35    39    1
    44    36    40    1
    45    42    43    1
@<TRIPOS>MOLECULE
GDU
 43 45 0 0 0
SMALL
GASTEIGER

@<TRIPOS>ATOM
      1 P          20.7138   74.1970   -3.5764 P.3     1  UNL1        0.2189
      2 O          20.0855   72.8699   -3.3929 O.2     1  UNL1       -0.5170
      3 O          19.6696   75.1903   -4.2946 O.3     1  UNL1       -0.4371
      4 O          21.1273   74.7982   -2.1430 O.3     1  UNL1       -0.3112
      5 C          20.9179   73.7611   -1.1833 C.3     1  UNL1        0.1811
      6 C          23.2190   72.8350    1.4195 C.3     1  UNL1        0.2383
      7 C          22.5583   71.4998    0.9910 C.3     1  UNL1        0.1895
      8 O          23.4629   70.4060    1.1599 O.3     1  UNL1       -0.3779
      9 C          22.2665   71.7492   -0.5116 C.3     1  UNL1        0.1713
     10 C          22.2671   73.2835   -0.6433 C.3     1  UNL1        0.1764
     11 O          22.4885   73.8284    0.6691 O.3     1  UNL1       -0.3308
     12 O          23.2910   71.1704   -1.3223 O.3     1  UNL1       -0.3794
     13 H          22.9928   69.6091    0.8773 H       1  UNL1        0.2106
     14 H          23.2792   70.2188   -1.1515 H       1  UNL1        0.2105
     15 N          23.0584   73.0541    2.8579 N.ar    1  UNL1       -0.2551
     16 C          21.9426   72.6295    3.4767 C.ar    1  UNL1        0.3323
     17 N          21.7717   72.8154    4.7989 N.ar    1  UNL1       -0.2743
     18 C          22.7171   73.4421    5.5252 C.ar    1  UNL1        0.2626
     19 C          23.8952   73.8999    4.8858 C.ar    1  UNL1        0.0795
     20 C          24.0429   73.6967    3.5594 C.ar    1  UNL1        0.0869
     21 O          21.0812   72.0621    2.8348 O.2     1  UNL1       -0.2464
     22 O          22.5613   73.6150    6.7212 O.2     1  UNL1       -0.2670
     23 H          20.9620   72.4986    5.2299 H       1  UNL1        0.1734
     24 O          22.0272   74.0454   -4.4953 O.3     1  UNL1       -0.2703
     25 P          21.9761   72.5731   -5.1431 P.3     1  UNL1        0.2208
     26 O          23.0472   72.4423   -6.1553 O.2     1  UNL1       -0.5170
     27 O          22.1923   71.4713   -3.9883 O.3     1  UNL1       -0.4371
     28 O          20.5448   72.3424   -5.8419 O.3     1  UNL1       -0.2858
     29 C          20.5538   71.0191   -6.3792 C.3     1  UNL1        0.2704
     30 C          20.1228   71.0622   -7.8460 C.3     1  UNL1        0.1967
     31 C          18.7209   71.6730   -7.9360 C.3     1  UNL1        0.1715
     32 C          17.7861   70.8937   -7.0041 C.3     1  UNL1        0.1694
     33 C          18.3940   70.8651   -5.5996 C.3     1  UNL1        0.1761
     34 O          21.0432   71.8607   -8.5921 O.3     1  UNL1       -0.3775
     35 O          18.2446   71.5856   -9.2806 O.3     1  UNL1       -0.3794
     36 O          17.6306   69.5596   -7.4899 O.3     1  UNL1       -0.3794
     37 O          19.6557   70.1997   -5.6345 O.3     1  UNL1       -0.3258
     38 H          21.9110   71.4441   -8.5015 H       1  UNL1        0.2106
     39 H          18.8671   72.0777   -9.8306 H       1  UNL1        0.2105
     40 H          17.2515   69.6268   -8.3759 H       1  UNL1        0.2105
     41 C          17.4515   70.1184   -4.6529 C.3     1  UNL1        0.1693
     42 O          16.0973   70.3900   -5.0182 O.3     1  UNL1       -0.3794
     43 H          15.5372   69.9015   -4.3995 H       1  UNL1        0.2105
@<TRIPOS>BOND
     1    15    16   ar
     2    15    20   ar
     3    15     6    1
     4    16    17   ar
     5    16    21    2
     6    17    18   ar
     7    17    23    1
     8    18    19   ar
     9    18    22    2
    10    19    20   ar
    11     6     7    1
    12     6    11    1
    13     7     8    1
    14     7     9    1
    15     8    13    1
    16     9    10    1
    17     9    12    1
    18    10    11    1
    19    10     5    1
    20    12    14    1
    21     5     4    1
    22     4     1    1
    23     1     2    2
    24     1     3    1
    25     1    24    1
    26    24    25    1
    27    25    26    2
    28    25    27    1
    29    25    28    1
    30    28    29    1
    31    29    30    1
    32    29    37    1
    33    30    31    1
    34    30    34    1
    35    31    32    1
    36    31    35    1
    37    32    33    1
    38    32    36    1
    39    33    41    1
    40    33    37    1
    41    41    42    1
    42    34    38    1
    43    35    39    1
    44    36    40    1
    45    42    43    1
