@<TRIPOS>MOLECULE
*****
 43 45 0 0 0
SMALL
GASTEIGER

@<TRIPOS>ATOM
      1 P          22.9752   71.3954   -2.4420 P.3     1  UNL1        0.2189
      2 O          22.8510   73.0085   -2.4407 O.co2   1  UNL1       -0.4371
      3 O          24.1961   70.8543   -3.1263 O.2     1  UNL1       -0.5170
      4 O          21.5563   70.8970   -3.0388 O.3     1  UNL1       -0.3112
      5 C          20.8847   71.7283   -3.9693 C.3     1  UNL1        0.1811
      6 O          18.6694   72.0710   -4.8346 O.3     1  UNL1       -0.3308
      7 O          17.6937   70.6472   -2.3827 O.3     1  UNL1       -0.3794
      8 O          17.5522   68.7063   -4.2930 O.3     1  UNL1       -0.3779
      9 C          18.8670   70.4077   -3.1582 C.3     1  UNL1        0.1713
     10 C          18.5046   69.7357   -4.4662 C.3     1  UNL1        0.1895
     11 C          19.4007   71.7546   -3.6298 C.3     1  UNL1        0.1764
     12 C          17.9658   70.9000   -5.2799 C.3     1  UNL1        0.2383
     13 H          17.3348   69.8014   -2.0700 H       1  UNL1        0.2105
     14 H          17.9425   67.9892   -3.7695 H       1  UNL1        0.2106
     15 O          15.9073   70.7210   -7.2057 O.2     1  UNL1       -0.2464
     16 O          18.9262   70.2533  -10.6566 O.2     1  UNL1       -0.2670
     17 N          18.1854   70.7316   -6.6887 N.ar    1  UNL1       -0.2551
     18 N          17.4121   70.4884   -8.9224 N.ar    1  UNL1       -0.2743
     19 C          17.0827   70.6521   -7.5709 C.ar    1  UNL1        0.3323
     20 C          19.4826   70.6475   -7.1827 C.ar    1  UNL1        0.0869
     21 C          19.7799   70.4902   -8.4742 C.ar    1  UNL1        0.0795
     22 C          18.6854   70.3982   -9.4621 C.ar    1  UNL1        0.2626
     23 H          16.6600   70.4301   -9.5555 H       1  UNL1        0.1734
     24 O          22.8615   71.0208   -0.8737 O.3     1  UNL1       -0.2703
     25 P          21.7954   71.4778    0.2522 P.3     1  UNL1        0.2208
     26 O          21.5223   70.1146    1.0796 O.co2   1  UNL1       -0.4371
     27 O          20.5584   72.1261   -0.2987 O.2     1  UNL1       -0.5170
     28 O          22.6430   72.4062    1.2645 O.3     1  UNL1       -0.2858
     29 O          24.4620   72.1212    2.7566 O.3     1  UNL1       -0.3258
     30 O          21.8930   74.1952    5.2365 O.3     1  UNL1       -0.3794
     31 O          24.2198   75.5106    4.1858 O.3     1  UNL1       -0.3794
     32 O          20.8468   72.2067    3.4114 O.3     1  UNL1       -0.3775
     33 C          22.5083   73.8510    3.9922 C.3     1  UNL1        0.1715
     34 C          24.0124   74.1026    4.1151 C.3     1  UNL1        0.1694
     35 C          22.2323   72.3795    3.6890 C.3     1  UNL1        0.1967
     36 C          24.7726   73.5098    2.9211 C.3     1  UNL1        0.1761
     37 C          23.0749   71.8770    2.5153 C.3     1  UNL1        0.2704
     38 H          22.0640   75.1285    5.4346 H       1  UNL1        0.2105
     39 H          23.7340   75.8725    4.9436 H       1  UNL1        0.2105
     40 H          20.3242   72.5283    4.1619 H       1  UNL1        0.2106
     41 O          26.5546   74.0491    4.4186 O.3     1  UNL1       -0.3794
     42 C          26.2859   73.6103    3.0996 C.3     1  UNL1        0.1693
     43 H          27.5141   74.1174    4.5468 H       1  UNL1        0.2105
@<TRIPOS>UNITY_ATOM_ATTR
2 1
charge -1
26 1
charge -1
@<TRIPOS>BOND
     1    25    28    1
     2    25    24    1
     3    25    26    1
     4    25    27    2
     5     1     4    1
     6     1    24    1
     7     1     2    1
     8     1     3    2
     9     6    11    1
    10     6    12    1
    11    29    36    1
    12    29    37    1
    13     7     9    1
    14     7    13    1
    15     8    10    1
    16     8    14    1
    17    28    37    1
    18     4     5    1
    19    30    33    1
    20    30    38    1
    21    31    34    1
    22    31    39    1
    23    32    35    1
    24    32    40    1
    25    41    42    1
    26    41    43    1
    27    15    19    2
    28    16    22    2
    29    17    12    1
    30    17    19   ar
    31    17    20   ar
    32    18    19   ar
    33    18    22   ar
    34    18    23    1
    35     9    10    1
    36     9    11    1
    37    10    12    1
    38    11     5    1
    39    33    34    1
    40    33    35    1
    41    34    36    1
    42    35    37    1
    43    36    42    1
    44    20    21   ar
    45    21    22   ar
@<TRIPOS>MOLECULE
*****
 43 45 0 0 0
SMALL
GASTEIGER

@<TRIPOS>ATOM
      1 P          21.4919   72.3116   -4.8302 P.3     1  UNL1        0.2189
      2 O          20.7198   73.7316   -4.8994 O.co2   1  UNL1       -0.4371
      3 O          22.6286   72.1604   -5.7979 O.2     1  UNL1       -0.5170
      4 O          20.3066   71.2182   -4.9621 O.3     1  UNL1       -0.3112
      5 C          19.6694   70.7659   -3.7801 C.3     1  UNL1        0.1811
      6 O          17.9177   71.6664   -5.1566 O.3     1  UNL1       -0.3308
      7 O          16.0051   70.3819   -3.2375 O.3     1  UNL1       -0.3794
      8 O          16.0094   68.6348   -5.3314 O.3     1  UNL1       -0.3779
      9 C          17.2730   69.9153   -3.6959 C.3     1  UNL1        0.1713
     10 C          17.1662   69.4190   -5.1227 C.3     1  UNL1        0.1895
     11 C          18.1906   71.1222   -3.8467 C.3     1  UNL1        0.1764
     12 C          17.1403   70.7196   -5.9076 C.3     1  UNL1        0.2383
     13 H          15.4020   69.6287   -3.1333 H       1  UNL1        0.2105
     14 H          16.0736   67.8188   -4.8111 H       1  UNL1        0.2106
     15 O          15.6592   70.7859   -8.3117 O.2     1  UNL1       -0.2464
     16 O          19.4415   70.1743  -10.8731 O.2     1  UNL1       -0.2670
     17 N          17.7126   70.5806   -7.2170 N.ar    1  UNL1       -0.2551
     18 N          17.5437   70.4815   -9.5851 N.ar    1  UNL1       -0.2743
     19 C          16.8807   70.6273   -8.3599 C.ar    1  UNL1        0.3323
     20 C          19.0843   70.4006   -7.3582 C.ar    1  UNL1        0.0869
     21 C          19.7009   70.2618   -8.5337 C.ar    1  UNL1        0.0795
     22 C          18.9041   70.2990   -9.7770 C.ar    1  UNL1        0.2626
     23 H          16.9844   70.5104  -10.3951 H       1  UNL1        0.1734
     24 O          21.9146   72.2032   -3.2737 O.3     1  UNL1       -0.2703
     25 P          23.3679   72.1065   -2.5726 P.3     1  UNL1        0.2208
     26 O          24.0644   73.5125   -2.9670 O.co2   1  UNL1       -0.4371
     27 O          24.1597   70.8922   -2.9628 O.2     1  UNL1       -0.5170
     28 O          23.0677   72.2297   -0.9916 O.3     1  UNL1       -0.2858
     29 O          24.1071   70.7885    0.5766 O.3     1  UNL1       -0.3258
     30 O          20.7802   71.8644    2.7733 O.3     1  UNL1       -0.3794
     31 O          23.3546   72.9147    3.4924 O.3     1  UNL1       -0.3794
     32 O          20.5445   71.4111   -0.0760 O.3     1  UNL1       -0.3775
     33 C          21.8470   72.0641    1.8419 C.3     1  UNL1        0.1715
     34 C          23.1714   71.8404    2.5745 C.3     1  UNL1        0.1694
     35 C          21.6958   71.0726    0.6897 C.3     1  UNL1        0.1967
     36 C          24.3455   71.7738    1.5886 C.3     1  UNL1        0.1761
     37 C          22.9381   71.0499   -0.2026 C.3     1  UNL1        0.2704
     38 H          20.8700   72.4912    3.5071 H       1  UNL1        0.2105
     39 H          22.6063   72.9460    4.1090 H       1  UNL1        0.2105
     40 H          19.7648   71.4218    0.5001 H       1  UNL1        0.2106
     41 O          26.2043   72.5591    2.8680 O.3     1  UNL1       -0.3794
     42 C          25.6529   71.3949    2.2809 C.3     1  UNL1        0.1693
     43 H          27.0368   72.3331    3.3126 H       1  UNL1        0.2105
@<TRIPOS>UNITY_ATOM_ATTR
2 1
charge -1
26 1
charge -1
@<TRIPOS>BOND
     1    25    28    1
     2    25    24    1
     3    25    26    1
     4    25    27    2
     5     1     4    1
     6     1    24    1
     7     1     2    1
     8     1     3    2
     9     6    11    1
    10     6    12    1
    11    29    36    1
    12    29    37    1
    13     7     9    1
    14     7    13    1
    15     8    10    1
    16     8    14    1
    17    28    37    1
    18     4     5    1
    19    30    33    1
    20    30    38    1
    21    31    34    1
    22    31    39    1
    23    32    35    1
    24    32    40    1
    25    41    42    1
    26    41    43    1
    27    15    19    2
    28    16    22    2
    29    17    12    1
    30    17    19   ar
    31    17    20   ar
    32    18    19   ar
    33    18    22   ar
    34    18    23    1
    35     9    10    1
    36     9    11    1
    37    10    12    1
    38    11     5    1
    39    33    34    1
    40    33    35    1
    41    34    36    1
    42    35    37    1
    43    36    42    1
    44    20    21   ar
    45    21    22   ar
@<TRIPOS>MOLECULE
*****
 43 45 0 0 0
SMALL
GASTEIGER

@<TRIPOS>ATOM
      1 P          23.4418   71.8981   -3.3528 P.3     1  UNL1        0.2189
      2 O          24.1749   72.9284   -4.3620 O.co2   1  UNL1       -0.4371
      3 O          24.2851   70.7402   -2.9063 O.2     1  UNL1       -0.5170
      4 O          22.0697   71.5136   -4.1194 O.3     1  UNL1       -0.3112
      5 C          21.5584   72.4167   -5.0842 C.3     1  UNL1        0.1811
      6 O          20.5415   70.4813   -6.0811 O.3     1  UNL1       -0.3308
      7 O          20.7616   71.9413   -8.6908 O.3     1  UNL1       -0.3794
      8 O          18.1417   72.3034   -8.0263 O.3     1  UNL1       -0.3779
      9 C          20.4832   72.4561   -7.3897 C.3     1  UNL1        0.1713
     10 C          19.0683   72.1069   -6.9778 C.3     1  UNL1        0.1895
     11 C          21.3115   71.6650   -6.3850 C.3     1  UNL1        0.1764
     12 C          19.2060   70.6456   -6.5854 C.3     1  UNL1        0.2383
     13 H          20.2442   72.4313   -9.3497 H       1  UNL1        0.2105
     14 H          18.0898   73.2482   -8.2393 H       1  UNL1        0.2106
     15 O          16.5555   69.8053   -7.0824 O.2     1  UNL1       -0.2464
     16 O          15.7110   69.2003   -2.5922 O.2     1  UNL1       -0.2670
     17 N          18.2717   70.2623   -5.5648 N.ar    1  UNL1       -0.2551
     18 N          16.1373   69.5045   -4.8462 N.ar    1  UNL1       -0.2743
     19 C          16.9642   69.8568   -5.9205 C.ar    1  UNL1        0.3323
     20 C          18.6552   70.2903   -4.2284 C.ar    1  UNL1        0.0869
     21 C          17.8542   69.9525   -3.2157 C.ar    1  UNL1        0.0795
     22 C          16.4718   69.5172   -3.5014 C.ar    1  UNL1        0.2626
     23 H          15.2217   69.2192   -5.0699 H       1  UNL1        0.1734
     24 O          22.9329   72.8601   -2.1576 O.3     1  UNL1       -0.2703
     25 P          21.7392   72.6775   -1.0831 P.3     1  UNL1        0.2208
     26 O          21.5965   71.0709   -0.9566 O.co2   1  UNL1       -0.4371
     27 O          20.4671   73.3851   -1.4503 O.2     1  UNL1       -0.5170
     28 O          22.3808   73.1417    0.3232 O.3     1  UNL1       -0.2858
     29 O          24.5932   73.0597    1.1689 O.3     1  UNL1       -0.3258
     30 O          22.5368   72.0374    4.6006 O.3     1  UNL1       -0.3794
     31 O          23.7473   74.6335    4.3933 O.3     1  UNL1       -0.3794
     32 O          21.6464   71.0410    2.0328 O.3     1  UNL1       -0.3775
     33 C          22.7464   72.7214    3.3622 C.3     1  UNL1        0.1715
     34 C          24.0162   73.5652    3.4895 C.3     1  UNL1        0.1694
     35 C          22.8944   71.6927    2.2427 C.3     1  UNL1        0.1967
     36 C          24.4540   74.1165    2.1258 C.3     1  UNL1        0.1761
     37 C          23.3808   72.3378    0.9437 C.3     1  UNL1        0.2704
     38 H          22.4415   72.6849    5.3156 H       1  UNL1        0.2105
     39 H          23.4714   74.2719    5.2502 H       1  UNL1        0.2105
     40 H          21.3494   70.6365    2.8623 H       1  UNL1        0.2106
     41 O          26.4981   74.3522    3.3404 O.3     1  UNL1       -0.3794
     42 C          25.8027   74.8288    2.2031 C.3     1  UNL1        0.1693
     43 H          27.3585   74.7966    3.4022 H       1  UNL1        0.2105
@<TRIPOS>UNITY_ATOM_ATTR
2 1
charge -1
26 1
charge -1
@<TRIPOS>BOND
     1    25    28    1
     2    25    24    1
     3    25    26    1
     4    25    27    2
     5     1     4    1
     6     1    24    1
     7     1     2    1
     8     1     3    2
     9     6    11    1
    10     6    12    1
    11    29    36    1
    12    29    37    1
    13     7     9    1
    14     7    13    1
    15     8    10    1
    16     8    14    1
    17    28    37    1
    18     4     5    1
    19    30    33    1
    20    30    38    1
    21    31    34    1
    22    31    39    1
    23    32    35    1
    24    32    40    1
    25    41    42    1
    26    41    43    1
    27    15    19    2
    28    16    22    2
    29    17    12    1
    30    17    19   ar
    31    17    20   ar
    32    18    19   ar
    33    18    22   ar
    34    18    23    1
    35     9    10    1
    36     9    11    1
    37    10    12    1
    38    11     5    1
    39    33    34    1
    40    33    35    1
    41    34    36    1
    42    35    37    1
    43    36    42    1
    44    20    21   ar
    45    21    22   ar
@<TRIPOS>MOLECULE
*****
 43 45 0 0 0
SMALL
GASTEIGER

@<TRIPOS>ATOM
      1 P          20.4332   71.2012   -1.3121 P.3     1  UNL1        0.2189
      2 O          20.6532   70.5136    0.1357 O.co2   1  UNL1       -0.4371
      3 O          20.0481   72.6509   -1.2733 O.2     1  UNL1       -0.5170
      4 O          19.3869   70.2158   -2.0551 O.3     1  UNL1       -0.3112
      5 C          19.0985   70.4438   -3.4236 C.3     1  UNL1        0.1811
      6 O          17.4041   71.3845   -4.8441 O.3     1  UNL1       -0.3308
      7 O          15.4351   69.8035   -3.2271 O.3     1  UNL1       -0.3794
      8 O          15.7109   68.2868   -5.4766 O.3     1  UNL1       -0.3779
      9 C          16.7615   69.4579   -3.6230 C.3     1  UNL1        0.1713
     10 C          16.7962   69.1077   -5.0960 C.3     1  UNL1        0.1895
     11 C          17.6096   70.7228   -3.5767 C.3     1  UNL1        0.1764
     12 C          16.7482   70.4795   -5.7472 C.3     1  UNL1        0.2383
     13 H          14.8748   69.0113   -3.2486 H       1  UNL1        0.2105
     14 H          15.7866   67.4258   -5.0364 H       1  UNL1        0.2106
     15 O          15.4509   70.6407   -8.2510 O.2     1  UNL1       -0.2464
     16 O          19.4540   70.5859  -10.5343 O.2     1  UNL1       -0.2670
     17 N          17.4270   70.5094   -7.0120 N.ar    1  UNL1       -0.2551
     18 N          17.4452   70.6134   -9.3859 N.ar    1  UNL1       -0.2743
     19 C          16.6820   70.5904   -8.2115 C.ar    1  UNL1        0.3323
     20 C          18.8161   70.4590   -7.0544 C.ar    1  UNL1        0.0869
     21 C          19.5288   70.4806   -8.1825 C.ar    1  UNL1        0.0795
     22 C          18.8270   70.5642   -9.4797 C.ar    1  UNL1        0.2626
     23 H          16.9476   70.6692  -10.2339 H       1  UNL1        0.1734
     24 O          21.8251   70.8951   -2.0750 O.3     1  UNL1       -0.2703
     25 P          23.2539   71.6490   -2.0200 P.3     1  UNL1        0.2208
     26 O          24.1902   70.7397   -2.9761 O.co2   1  UNL1       -0.4371
     27 O          23.7924   71.8466   -0.6326 O.2     1  UNL1       -0.5170
     28 O          23.0276   73.0143   -2.8504 O.3     1  UNL1       -0.2858
     29 O          23.6996   72.7582   -5.1086 O.3     1  UNL1       -0.3258
     30 O          23.0412   76.8345   -5.0744 O.3     1  UNL1       -0.3794
     31 O          21.1951   75.1115   -6.4424 O.3     1  UNL1       -0.3794
     32 O          24.2367   75.5456   -2.7746 O.3     1  UNL1       -0.3775
     33 C          22.8020   75.4730   -4.7079 C.3     1  UNL1        0.1715
     34 C          22.4729   74.6853   -5.9776 C.3     1  UNL1        0.1694
     35 C          24.0525   74.9101   -4.0350 C.3     1  UNL1        0.1967
     36 C          22.4664   73.1748   -5.7065 C.3     1  UNL1        0.1761
     37 C          23.9636   73.3935   -3.8562 C.3     1  UNL1        0.2704
     38 H          22.2508   77.1980   -5.5018 H       1  UNL1        0.2105
     39 H          21.2126   76.0670   -6.6093 H       1  UNL1        0.2105
     40 H          24.2918   76.5052   -2.9015 H       1  UNL1        0.2106
     41 O          22.5905   73.2016   -8.0924 O.3     1  UNL1       -0.3794
     42 C          22.2964   72.3642   -6.9894 C.3     1  UNL1        0.1693
     43 H          22.4867   72.6989   -8.9160 H       1  UNL1        0.2105
@<TRIPOS>UNITY_ATOM_ATTR
2 1
charge -1
26 1
charge -1
@<TRIPOS>BOND
     1    25    28    1
     2    25    24    1
     3    25    26    1
     4    25    27    2
     5     1     4    1
     6     1    24    1
     7     1     2    1
     8     1     3    2
     9     6    11    1
    10     6    12    1
    11    29    36    1
    12    29    37    1
    13     7     9    1
    14     7    13    1
    15     8    10    1
    16     8    14    1
    17    28    37    1
    18     4     5    1
    19    30    33    1
    20    30    38    1
    21    31    34    1
    22    31    39    1
    23    32    35    1
    24    32    40    1
    25    41    42    1
    26    41    43    1
    27    15    19    2
    28    16    22    2
    29    17    12    1
    30    17    19   ar
    31    17    20   ar
    32    18    19   ar
    33    18    22   ar
    34    18    23    1
    35     9    10    1
    36     9    11    1
    37    10    12    1
    38    11     5    1
    39    33    34    1
    40    33    35    1
    41    34    36    1
    42    35    37    1
    43    36    42    1
    44    20    21   ar
    45    21    22   ar
@<TRIPOS>MOLECULE
*****
 43 45 0 0 0
SMALL
GASTEIGER

@<TRIPOS>ATOM
      1 P          19.6417   72.3204   -1.5024 P.3     1  UNL1        0.2189
      2 O          18.1714   72.8290   -1.0585 O.co2   1  UNL1       -0.4371
      3 O          20.3732   73.2363   -2.4391 O.2     1  UNL1       -0.5170
      4 O          19.3853   70.8181   -2.0460 O.3     1  UNL1       -0.3112
      5 C          19.0590   70.6404   -3.4133 C.3     1  UNL1        0.1811
      6 O          17.3594   71.4914   -4.8834 O.3     1  UNL1       -0.3308
      7 O          15.4177   69.8725   -3.2710 O.3     1  UNL1       -0.3794
      8 O          15.7902   68.3228   -5.4838 O.3     1  UNL1       -0.3779
      9 C          16.7629   69.5672   -3.6354 C.3     1  UNL1        0.1713
     10 C          16.8381   69.1897   -5.1001 C.3     1  UNL1        0.1895
     11 C          17.5642   70.8626   -3.5993 C.3     1  UNL1        0.1764
     12 C          16.7535   70.5458   -5.7798 C.3     1  UNL1        0.2383
     13 H          14.8865   69.0604   -3.2866 H       1  UNL1        0.2105
     14 H          15.8882   67.4740   -5.0249 H       1  UNL1        0.2106
     15 O          15.4991   70.6054   -8.3098 O.2     1  UNL1       -0.2464
     16 O          19.5443   70.6559  -10.5178 O.2     1  UNL1       -0.2670
     17 N          17.4547   70.5753   -7.0323 N.ar    1  UNL1       -0.2551
     18 N          17.5143   70.6307   -9.4072 N.ar    1  UNL1       -0.2743
     19 C          16.7303   70.6029   -8.2468 C.ar    1  UNL1        0.3323
     20 C          18.8453   70.5770   -7.0482 C.ar    1  UNL1        0.0869
     21 C          19.5781   70.6023   -8.1633 C.ar    1  UNL1        0.0795
     22 C          18.8986   70.6322   -9.4746 C.ar    1  UNL1        0.2626
     23 H          17.0313   70.6498  -10.2651 H       1  UNL1        0.1734
     24 O          20.3832   72.0731   -0.0875 O.3     1  UNL1       -0.2703
     25 P          21.7570   71.3000    0.2702 P.3     1  UNL1        0.2208
     26 O          22.4425   71.0724   -1.1775 O.co2   1  UNL1       -0.4371
     27 O          21.5659   70.0435    1.0693 O.2     1  UNL1       -0.5170
     28 O          22.6784   72.4147    0.9868 O.3     1  UNL1       -0.2858
     29 O          24.3367   73.7296   -0.0798 O.3     1  UNL1       -0.3258
     30 O          25.9653   73.5616    3.7110 O.3     1  UNL1       -0.3794
     31 O          24.7998   76.0142    2.7759 O.3     1  UNL1       -0.3794
     32 O          24.6478   71.2353    2.6010 O.3     1  UNL1       -0.3775
     33 C          24.9098   73.6251    2.7480 C.3     1  UNL1        0.1715
     34 C          25.0850   74.9050    1.9282 C.3     1  UNL1        0.1694
     35 C          24.9827   72.3946    1.8458 C.3     1  UNL1        0.1967
     36 C          24.1551   74.9125    0.7074 C.3     1  UNL1        0.1761
     37 C          24.0554   72.5254    0.6362 C.3     1  UNL1        0.2704
     38 H          25.9244   74.3398    4.2874 H       1  UNL1        0.2105
     39 H          25.3934   75.9974    3.5431 H       1  UNL1        0.2105
     40 H          25.2420   71.1636    3.3637 H       1  UNL1        0.2106
     41 O          25.6468   76.7027    0.1794 O.3     1  UNL1       -0.3794
     42 C          24.4242   76.1039   -0.2092 C.3     1  UNL1        0.1693
     43 H          25.8312   77.4624   -0.3955 H       1  UNL1        0.2105
@<TRIPOS>UNITY_ATOM_ATTR
2 1
charge -1
26 1
charge -1
@<TRIPOS>BOND
     1    25    28    1
     2    25    24    1
     3    25    26    1
     4    25    27    2
     5     1     4    1
     6     1    24    1
     7     1     2    1
     8     1     3    2
     9     6    11    1
    10     6    12    1
    11    29    36    1
    12    29    37    1
    13     7     9    1
    14     7    13    1
    15     8    10    1
    16     8    14    1
    17    28    37    1
    18     4     5    1
    19    30    33    1
    20    30    38    1
    21    31    34    1
    22    31    39    1
    23    32    35    1
    24    32    40    1
    25    41    42    1
    26    41    43    1
    27    15    19    2
    28    16    22    2
    29    17    12    1
    30    17    19   ar
    31    17    20   ar
    32    18    19   ar
    33    18    22   ar
    34    18    23    1
    35     9    10    1
    36     9    11    1
    37    10    12    1
    38    11     5    1
    39    33    34    1
    40    33    35    1
    41    34    36    1
    42    35    37    1
    43    36    42    1
    44    20    21   ar
    45    21    22   ar
@<TRIPOS>MOLECULE
*****
 43 45 0 0 0
SMALL
GASTEIGER

@<TRIPOS>ATOM
      1 P          23.6792   72.5213   -3.6034 P.3     1  UNL1        0.2189
      2 O          24.1753   71.0173   -3.2730 O.co2   1  UNL1       -0.4371
      3 O          24.5537   73.2821   -4.5562 O.2     1  UNL1       -0.5170
      4 O          23.4780   73.1930   -2.1453 O.3     1  UNL1       -0.3112
      5 C          22.1740   73.2296   -1.5919 C.3     1  UNL1        0.1811
      6 O          23.0637   71.4109   -0.2977 O.3     1  UNL1       -0.3308
      7 O          20.2148   70.6573    0.2557 O.3     1  UNL1       -0.3794
      8 O          20.9484   71.9341    2.5509 O.3     1  UNL1       -0.3779
      9 C          20.7959   71.9536    0.1245 C.3     1  UNL1        0.1713
     10 C          21.6113   72.2913    1.3552 C.3     1  UNL1        0.1895
     11 C          21.8671   71.8804   -0.9565 C.3     1  UNL1        0.1764
     12 C          22.8778   71.4843    1.1253 C.3     1  UNL1        0.2383
     13 H          19.5273   70.6792    0.9404 H       1  UNL1        0.2105
     14 H          20.1496   72.4749    2.6520 H       1  UNL1        0.2106
     15 O          25.0169   70.0618    2.2994 O.2     1  UNL1       -0.2464
     16 O          27.2586   73.9464    3.3603 O.2     1  UNL1       -0.2670
     17 N          24.0334   72.0987    1.7155 N.ar    1  UNL1       -0.2551
     18 N          26.1314   71.9971    2.8266 N.ar    1  UNL1       -0.2743
     19 C          25.0508   71.2939    2.2792 C.ar    1  UNL1        0.3323
     20 C          24.1497   73.4843    1.7312 C.ar    1  UNL1        0.0869
     21 C          25.1860   74.1396    2.2582 C.ar    1  UNL1        0.0795
     22 C          26.2920   73.3731    2.8675 C.ar    1  UNL1        0.2626
     23 H          26.8521   71.4573    3.2253 H       1  UNL1        0.1734
     24 O          22.1616   72.2995   -4.1139 O.3     1  UNL1       -0.2703
     25 P          21.3406   72.9785   -5.3296 P.3     1  UNL1        0.2208
     26 O          21.9574   72.2594   -6.6411 O.co2   1  UNL1       -0.4371
     27 O          21.4083   74.4780   -5.3561 O.2     1  UNL1       -0.5170
     28 O          19.8479   72.3785   -5.1998 O.3     1  UNL1       -0.2858
     29 O          19.3834   70.1561   -4.5204 O.3     1  UNL1       -0.3258
     30 O          16.0071   70.8725   -6.7872 O.3     1  UNL1       -0.3794
     31 O          15.7961   70.7611   -3.9252 O.3     1  UNL1       -0.3794
     32 O          18.5718   71.8986   -7.6526 O.3     1  UNL1       -0.3775
     33 C          17.0742   71.2094   -5.8966 C.3     1  UNL1        0.1715
     34 C          16.9492   70.3363   -4.6464 C.3     1  UNL1        0.1694
     35 C          18.4078   70.9572   -6.5975 C.3     1  UNL1        0.1967
     36 C          18.2012   70.4473   -3.7659 C.3     1  UNL1        0.1761
     37 C          19.5834   71.0434   -5.6225 C.3     1  UNL1        0.2704
     38 H          15.1574   71.0308   -6.3484 H       1  UNL1        0.2105
     39 H          15.0127   70.6866   -4.4925 H       1  UNL1        0.2105
     40 H          17.8214   71.8339   -8.2630 H       1  UNL1        0.2106
     41 O          17.0519   68.6091   -2.7613 O.3     1  UNL1       -0.3794
     42 C          18.1661   69.4667   -2.5957 C.3     1  UNL1        0.1693
     43 H          17.0170   67.9793   -2.0239 H       1  UNL1        0.2105
@<TRIPOS>UNITY_ATOM_ATTR
2 1
charge -1
26 1
charge -1
@<TRIPOS>BOND
     1    25    28    1
     2    25    24    1
     3    25    26    1
     4    25    27    2
     5     1     4    1
     6     1    24    1
     7     1     2    1
     8     1     3    2
     9     6    11    1
    10     6    12    1
    11    29    36    1
    12    29    37    1
    13     7     9    1
    14     7    13    1
    15     8    10    1
    16     8    14    1
    17    28    37    1
    18     4     5    1
    19    30    33    1
    20    30    38    1
    21    31    34    1
    22    31    39    1
    23    32    35    1
    24    32    40    1
    25    41    42    1
    26    41    43    1
    27    15    19    2
    28    16    22    2
    29    17    12    1
    30    17    19   ar
    31    17    20   ar
    32    18    19   ar
    33    18    22   ar
    34    18    23    1
    35     9    10    1
    36     9    11    1
    37    10    12    1
    38    11     5    1
    39    33    34    1
    40    33    35    1
    41    34    36    1
    42    35    37    1
    43    36    42    1
    44    20    21   ar
    45    21    22   ar
@<TRIPOS>MOLECULE
*****
 43 45 0 0 0
SMALL
GASTEIGER

@<TRIPOS>ATOM
      1 P          22.9219   72.6050   -3.7479 P.3     1  UNL1        0.2189
      2 O          22.4675   71.0802   -3.4551 O.co2   1  UNL1       -0.4371
      3 O          24.2788   72.7534   -4.3710 O.2     1  UNL1       -0.5170
      4 O          22.7158   73.3514   -2.3272 O.3     1  UNL1       -0.3112
      5 C          21.7451   74.3799   -2.2383 C.3     1  UNL1        0.1811
      6 O          20.9893   72.6653   -0.7341 O.3     1  UNL1       -0.3308
      7 O          18.8841   74.6161    0.1339 O.3     1  UNL1       -0.3794
      8 O          20.7271   74.8007    2.1354 O.3     1  UNL1       -0.3779
      9 C          20.2378   74.8590   -0.2455 C.3     1  UNL1        0.1713
     10 C          21.1798   74.4142    0.8538 C.3     1  UNL1        0.1895
     11 C          20.5888   73.8969   -1.3736 C.3     1  UNL1        0.1764
     12 C          21.1914   72.9064    0.6680 C.3     1  UNL1        0.2383
     13 H          18.6369   75.2191    0.8531 H       1  UNL1        0.2105
     14 H          20.7380   75.7681    2.2042 H       1  UNL1        0.2106
     15 O          21.5820   70.1410    1.0897 O.2     1  UNL1       -0.2464
     16 O          26.0127   70.7503    2.2029 O.2     1  UNL1       -0.2670
     17 N          22.4370   72.3149    1.0681 N.ar    1  UNL1       -0.2551
     18 N          23.7879   70.4466    1.6434 N.ar    1  UNL1       -0.2743
     19 C          22.5268   70.9156    1.2537 C.ar    1  UNL1        0.3323
     20 C          23.5526   73.1197    1.2718 C.ar    1  UNL1        0.0869
     21 C          24.7477   72.6570    1.6446 C.ar    1  UNL1        0.0795
     22 C          24.9264   71.2066    1.8598 C.ar    1  UNL1        0.2626
     23 H          23.8741   69.4750    1.7791 H       1  UNL1        0.1734
     24 O          21.7046   73.1819   -4.6413 O.3     1  UNL1       -0.2703
     25 P          21.4426   73.1342   -6.2357 P.3     1  UNL1        0.2208
     26 O          22.5354   72.0622   -6.7594 O.co2   1  UNL1       -0.4371
     27 O          21.5151   74.4728   -6.9116 O.2     1  UNL1       -0.5170
     28 O          20.0241   72.3809   -6.3943 O.3     1  UNL1       -0.2858
     29 O          19.2183   70.2594   -5.7112 O.3     1  UNL1       -0.3258
     30 O          17.5758   70.4014   -9.4971 O.3     1  UNL1       -0.3794
     31 O          15.8766   70.7063   -7.2019 O.3     1  UNL1       -0.3794
     32 O          20.2321   71.4549   -9.0352 O.3     1  UNL1       -0.3775
     33 C          18.0156   70.9383   -8.2467 C.3     1  UNL1        0.1715
     34 C          17.2264   70.2561   -7.1276 C.3     1  UNL1        0.1694
     35 C          19.5117   70.6734   -8.0882 C.3     1  UNL1        0.1967
     36 C          17.8230   70.5809   -5.7515 C.3     1  UNL1        0.1761
     37 C          19.9930   70.9828   -6.6696 C.3     1  UNL1        0.2704
     38 H          16.6267   70.5667   -9.6041 H       1  UNL1        0.2105
     39 H          15.5118   70.4956   -8.0758 H       1  UNL1        0.2105
     40 H          19.9184   71.2495   -9.9292 H       1  UNL1        0.2106
     41 O          15.9079   70.3966   -4.3347 O.3     1  UNL1       -0.3794
     42 C          17.1499   69.7866   -4.6343 C.3     1  UNL1        0.1693
     43 H          15.4680   69.9015   -3.6254 H       1  UNL1        0.2105
@<TRIPOS>UNITY_ATOM_ATTR
2 1
charge -1
26 1
charge -1
@<TRIPOS>BOND
     1    25    28    1
     2    25    24    1
     3    25    26    1
     4    25    27    2
     5     1     4    1
     6     1    24    1
     7     1     2    1
     8     1     3    2
     9     6    11    1
    10     6    12    1
    11    29    36    1
    12    29    37    1
    13     7     9    1
    14     7    13    1
    15     8    10    1
    16     8    14    1
    17    28    37    1
    18     4     5    1
    19    30    33    1
    20    30    38    1
    21    31    34    1
    22    31    39    1
    23    32    35    1
    24    32    40    1
    25    41    42    1
    26    41    43    1
    27    15    19    2
    28    16    22    2
    29    17    12    1
    30    17    19   ar
    31    17    20   ar
    32    18    19   ar
    33    18    22   ar
    34    18    23    1
    35     9    10    1
    36     9    11    1
    37    10    12    1
    38    11     5    1
    39    33    34    1
    40    33    35    1
    41    34    36    1
    42    35    37    1
    43    36    42    1
    44    20    21   ar
    45    21    22   ar
@<TRIPOS>MOLECULE
*****
 43 45 0 0 0
SMALL
GASTEIGER

@<TRIPOS>ATOM
      1 P          21.2297   73.2485   -4.9958 P.3     1  UNL1        0.2189
      2 O          21.2381   74.7845   -5.5040 O.co2   1  UNL1       -0.4371
      3 O          21.9909   72.2897   -5.8635 O.2     1  UNL1       -0.5170
      4 O          19.6596   72.9159   -4.7905 O.3     1  UNL1       -0.3112
      5 C          19.2915   71.9827   -3.7899 C.3     1  UNL1        0.1811
      6 O          17.3529   71.9921   -5.2096 O.3     1  UNL1       -0.3308
      7 O          16.0217   70.3444   -3.0874 O.3     1  UNL1       -0.3794
      8 O          16.7057   68.4741   -4.9503 O.3     1  UNL1       -0.3779
      9 C          17.3793   70.3253   -3.5253 C.3     1  UNL1        0.1713
     10 C          17.4865   69.6495   -4.8764 C.3     1  UNL1        0.1895
     11 C          17.7871   71.7564   -3.8523 C.3     1  UNL1        0.1764
     12 C          16.9933   70.7388   -5.8136 C.3     1  UNL1        0.2383
     13 H          15.7387   69.4413   -2.8724 H       1  UNL1        0.2105
     14 H          17.0592   67.8118   -4.3362 H       1  UNL1        0.2106
     15 O          15.5498   70.5962   -8.2372 O.2     1  UNL1       -0.2464
     16 O          19.4150   70.4286  -10.7419 O.2     1  UNL1       -0.2670
     17 N          17.5970   70.6575   -7.1137 N.ar    1  UNL1       -0.2551
     18 N          17.4755   70.5130   -9.4824 N.ar    1  UNL1       -0.2743
     19 C          16.7821   70.5890   -8.2677 C.ar    1  UNL1        0.3323
     20 C          18.9823   70.6466   -7.2350 C.ar    1  UNL1        0.0869
     21 C          19.6281   70.5724   -8.4007 C.ar    1  UNL1        0.0795
     22 C          18.8506   70.4977   -9.6545 C.ar    1  UNL1        0.2626
     23 H          16.9285   70.4641  -10.2998 H       1  UNL1        0.1734
     24 O          21.7779   73.3643   -3.4795 O.3     1  UNL1       -0.2703
     25 P          23.0275   72.6490   -2.7450 P.3     1  UNL1        0.2208
     26 O          24.1520   73.8116   -2.7091 O.co2   1  UNL1       -0.4371
     27 O          23.4764   71.3733   -3.3969 O.2     1  UNL1       -0.5170
     28 O          22.5599   72.4865   -1.2088 O.3     1  UNL1       -0.2858
     29 O          22.4396   74.1996    0.4245 O.3     1  UNL1       -0.3258
     30 O          23.3355   71.0054    2.8833 O.3     1  UNL1       -0.3794
     31 O          20.6903   72.1233    2.9180 O.3     1  UNL1       -0.3794
     32 O          24.5718   71.2101    0.2738 O.3     1  UNL1       -0.3775
     33 C          22.7323   71.6580    1.7627 C.3     1  UNL1        0.1715
     34 C          21.8028   72.7534    2.2890 C.3     1  UNL1        0.1694
     35 C          23.8288   72.2591    0.8855 C.3     1  UNL1        0.1967
     36 C          21.3265   73.6688    1.1531 C.3     1  UNL1        0.1761
     37 C          23.2514   73.1914   -0.1810 C.3     1  UNL1        0.2704
     38 H          22.6446   70.6211    3.4441 H       1  UNL1        0.2105
     39 H          21.0047   71.5478    3.6329 H       1  UNL1        0.2105
     40 H          24.9323   70.6271    0.9594 H       1  UNL1        0.2106
     41 O          20.8433   75.0490    3.0427 O.3     1  UNL1       -0.3794
     42 C          20.5266   74.8600    1.6758 C.3     1  UNL1        0.1693
     43 H          20.3417   75.8042    3.3888 H       1  UNL1        0.2105
@<TRIPOS>UNITY_ATOM_ATTR
2 1
charge -1
26 1
charge -1
@<TRIPOS>BOND
     1    25    28    1
     2    25    24    1
     3    25    26    1
     4    25    27    2
     5     1     4    1
     6     1    24    1
     7     1     2    1
     8     1     3    2
     9     6    11    1
    10     6    12    1
    11    29    36    1
    12    29    37    1
    13     7     9    1
    14     7    13    1
    15     8    10    1
    16     8    14    1
    17    28    37    1
    18     4     5    1
    19    30    33    1
    20    30    38    1
    21    31    34    1
    22    31    39    1
    23    32    35    1
    24    32    40    1
    25    41    42    1
    26    41    43    1
    27    15    19    2
    28    16    22    2
    29    17    12    1
    30    17    19   ar
    31    17    20   ar
    32    18    19   ar
    33    18    22   ar
    34    18    23    1
    35     9    10    1
    36     9    11    1
    37    10    12    1
    38    11     5    1
    39    33    34    1
    40    33    35    1
    41    34    36    1
    42    35    37    1
    43    36    42    1
    44    20    21   ar
    45    21    22   ar
@<TRIPOS>MOLECULE
*****
 43 45 0 0 0
SMALL
GASTEIGER

@<TRIPOS>ATOM
      1 P          19.9316   73.2990   -1.7827 P.3     1  UNL1        0.2189
      2 O          19.1571   74.7151   -1.6728 O.co2   1  UNL1       -0.4371
      3 O          21.1541   73.3111   -2.6528 O.2     1  UNL1       -0.5170
      4 O          18.7730   72.2550   -2.2134 O.3     1  UNL1       -0.3112
      5 C          18.5666   72.0052   -3.5928 C.3     1  UNL1        0.1811
      6 O          16.7936   71.7890   -5.2001 O.3     1  UNL1       -0.3308
      7 O          15.4979   69.9248   -3.2414 O.3     1  UNL1       -0.3794
      8 O          16.6101   68.2105   -5.0472 O.3     1  UNL1       -0.3779
      9 C          16.8818   70.0995   -3.5408 C.3     1  UNL1        0.1713
     10 C          17.2122   69.4782   -4.8818 C.3     1  UNL1        0.1895
     11 C          17.1207   71.5802   -3.8088 C.3     1  UNL1        0.1764
     12 C          16.6693   70.5142   -5.8514 C.3     1  UNL1        0.2383
     13 H          15.3211   68.9867   -3.0662 H       1  UNL1        0.2105
     14 H          16.9887   67.5868   -4.4082 H       1  UNL1        0.2106
     15 O          15.4825   70.6485   -8.4110 O.2     1  UNL1       -0.2464
     16 O          19.5833   70.6344  -10.5145 O.2     1  UNL1       -0.2670
     17 N          17.4031   70.5473   -7.0851 N.ar    1  UNL1       -0.2551
     18 N          17.5253   70.6415   -9.4563 N.ar    1  UNL1       -0.2743
     19 C          16.7112   70.6138   -8.3168 C.ar    1  UNL1        0.3323
     20 C          18.7932   70.5141   -7.0656 C.ar    1  UNL1        0.0869
     21 C          19.5550   70.5399   -8.1612 C.ar    1  UNL1        0.0795
     22 C          18.9105   70.6093   -9.4885 C.ar    1  UNL1        0.2626
     23 H          17.0652   70.6875  -10.3257 H       1  UNL1        0.1734
     24 O          20.2097   72.9159   -0.2371 O.3     1  UNL1       -0.2703
     25 P          21.3688   72.0165    0.4416 P.3     1  UNL1        0.2208
     26 O          22.6731   72.3546   -0.4540 O.co2   1  UNL1       -0.4371
     27 O          21.0405   70.5542    0.5302 O.2     1  UNL1       -0.5170
     28 O          21.6557   72.7249    1.8632 O.3     1  UNL1       -0.2858
     29 O          23.4013   71.3348    2.6614 O.3     1  UNL1       -0.3258
     30 O          23.5629   74.3064    5.5240 O.3     1  UNL1       -0.3794
     31 O          25.6376   74.1286    3.5461 O.3     1  UNL1       -0.3794
     32 O          21.0025   73.4245    4.5011 O.3     1  UNL1       -0.3775
     33 C          23.3687   73.7697    4.2127 C.3     1  UNL1        0.1715
     34 C          24.6729   73.1040    3.7691 C.3     1  UNL1        0.1694
     35 C          22.2317   72.7504    4.2538 C.3     1  UNL1        0.1967
     36 C          24.4666   72.2773    2.4926 C.3     1  UNL1        0.1761
     37 C          22.1445   71.9487    2.9539 C.3     1  UNL1        0.2704
     38 H          24.2832   74.9547    5.5047 H       1  UNL1        0.2105
     39 H          25.7581   74.6434    4.3595 H       1  UNL1        0.2105
     40 H          21.0704   73.9281    5.3268 H       1  UNL1        0.2106
     41 O          25.3146   70.3412    1.3784 O.3     1  UNL1       -0.3794
     42 C          25.7140   71.4787    2.1206 C.3     1  UNL1        0.1693
     43 H          26.0983   69.8236    1.1345 H       1  UNL1        0.2105
@<TRIPOS>UNITY_ATOM_ATTR
2 1
charge -1
26 1
charge -1
@<TRIPOS>BOND
     1    25    28    1
     2    25    24    1
     3    25    26    1
     4    25    27    2
     5     1     4    1
     6     1    24    1
     7     1     2    1
     8     1     3    2
     9     6    11    1
    10     6    12    1
    11    29    36    1
    12    29    37    1
    13     7     9    1
    14     7    13    1
    15     8    10    1
    16     8    14    1
    17    28    37    1
    18     4     5    1
    19    30    33    1
    20    30    38    1
    21    31    34    1
    22    31    39    1
    23    32    35    1
    24    32    40    1
    25    41    42    1
    26    41    43    1
    27    15    19    2
    28    16    22    2
    29    17    12    1
    30    17    19   ar
    31    17    20   ar
    32    18    19   ar
    33    18    22   ar
    34    18    23    1
    35     9    10    1
    36     9    11    1
    37    10    12    1
    38    11     5    1
    39    33    34    1
    40    33    35    1
    41    34    36    1
    42    35    37    1
    43    36    42    1
    44    20    21   ar
    45    21    22   ar
@<TRIPOS>MOLECULE
*****
 43 45 0 0 0
SMALL
GASTEIGER

@<TRIPOS>ATOM
      1 P          22.9745   72.6534   -3.7072 P.3     1  UNL1        0.2189
      2 O          22.4842   71.1141   -3.7937 O.co2   1  UNL1       -0.4371
      3 O          24.4285   72.8732   -4.0054 O.2     1  UNL1       -0.5170
      4 O          22.4757   73.1384   -2.2464 O.3     1  UNL1       -0.3112
      5 C          23.3110   72.8885   -1.1294 C.3     1  UNL1        0.1811
      6 O          21.3981   73.2030    0.2904 O.3     1  UNL1       -0.3308
      7 O          21.5293   70.2520    0.8053 O.3     1  UNL1       -0.3794
      8 O          19.5202   70.4466   -1.0283 O.3     1  UNL1       -0.3779
      9 C          21.8080   70.9717   -0.3946 C.3     1  UNL1        0.1713
     10 C          20.5199   71.4454   -1.0348 C.3     1  UNL1        0.1895
     11 C          22.4739   72.2868   -0.0090 C.3     1  UNL1        0.1764
     12 C          20.1583   72.6401   -0.1688 C.3     1  UNL1        0.2383
     13 H          21.1040   69.4080    0.5845 H       1  UNL1        0.2105
     14 H          19.7969   69.7084   -1.5933 H       1  UNL1        0.2106
     15 O          18.5626   74.6376    1.0319 O.2     1  UNL1       -0.2464
     16 O          17.4143   76.4342   -3.0540 O.2     1  UNL1       -0.2670
     17 N          19.4315   73.6430   -0.8950 N.ar    1  UNL1       -0.2551
     18 N          17.9923   75.5307   -1.0035 N.ar    1  UNL1       -0.2743
     19 C          18.6589   74.5999   -0.1965 C.ar    1  UNL1        0.3323
     20 C          19.4893   73.6711   -2.2841 C.ar    1  UNL1        0.0869
     21 C          18.8467   74.5645   -3.0391 C.ar    1  UNL1        0.0795
     22 C          18.0175   75.5989   -2.3875 C.ar    1  UNL1        0.2626
     23 H          17.4476   76.2068   -0.5388 H       1  UNL1        0.1734
     24 O          21.9597   73.4149   -4.7089 O.3     1  UNL1       -0.2703
     25 P          21.7540   73.2913   -6.3074 P.3     1  UNL1        0.2208
     26 O          22.8885   72.2246   -6.7462 O.co2   1  UNL1       -0.4371
     27 O          21.8189   74.6006   -7.0392 O.2     1  UNL1       -0.5170
     28 O          20.3594   72.4973   -6.4797 O.3     1  UNL1       -0.2858
     29 O          19.8085   70.3331   -5.6863 O.3     1  UNL1       -0.3258
     30 O          17.5701   70.3534   -9.1561 O.3     1  UNL1       -0.3794
     31 O          16.2485   70.5634   -6.6150 O.3     1  UNL1       -0.3794
     32 O          20.1953   71.5728   -9.1242 O.3     1  UNL1       -0.3775
     33 C          18.1719   70.9231   -7.9905 C.3     1  UNL1        0.1715
     34 C          17.6180   70.1985   -6.7621 C.3     1  UNL1        0.1694
     35 C          19.6874   70.7527   -8.0773 C.3     1  UNL1        0.1967
     36 C          18.4078   70.5668   -5.4988 C.3     1  UNL1        0.1761
     37 C          20.3715   71.0987   -6.7535 C.3     1  UNL1        0.2704
     38 H          16.6077   70.4587   -9.1075 H       1  UNL1        0.2105
     39 H          15.7612   70.3259   -7.4195 H       1  UNL1        0.2105
     40 H          19.7546   71.3438   -9.9568 H       1  UNL1        0.2106
     41 O          19.1347   69.2604   -3.6351 O.3     1  UNL1       -0.3794
     42 C          17.9749   69.7377   -4.2916 C.3     1  UNL1        0.1693
     43 H          18.8746   68.7311   -2.8644 H       1  UNL1        0.2105
@<TRIPOS>UNITY_ATOM_ATTR
2 1
charge -1
26 1
charge -1
@<TRIPOS>BOND
     1    25    28    1
     2    25    24    1
     3    25    26    1
     4    25    27    2
     5     1     4    1
     6     1    24    1
     7     1     2    1
     8     1     3    2
     9     6    11    1
    10     6    12    1
    11    29    36    1
    12    29    37    1
    13     7     9    1
    14     7    13    1
    15     8    10    1
    16     8    14    1
    17    28    37    1
    18     4     5    1
    19    30    33    1
    20    30    38    1
    21    31    34    1
    22    31    39    1
    23    32    35    1
    24    32    40    1
    25    41    42    1
    26    41    43    1
    27    15    19    2
    28    16    22    2
    29    17    12    1
    30    17    19   ar
    31    17    20   ar
    32    18    19   ar
    33    18    22   ar
    34    18    23    1
    35     9    10    1
    36     9    11    1
    37    10    12    1
    38    11     5    1
    39    33    34    1
    40    33    35    1
    41    34    36    1
    42    35    37    1
    43    36    42    1
    44    20    21   ar
    45    21    22   ar
@<TRIPOS>MOLECULE
*****
 43 45 0 0 0
SMALL
GASTEIGER

@<TRIPOS>ATOM
      1 P          20.1875   72.0568   -4.8711 P.3     1  UNL1        0.2189
      2 O          21.1015   70.7423   -5.1034 O.co2   1  UNL1       -0.4371
      3 O          19.3912   72.0584   -3.5994 O.2     1  UNL1       -0.5170
      4 O          19.3297   72.1799   -6.2375 O.3     1  UNL1       -0.3112
      5 C          19.9631   71.8616   -7.4644 C.3     1  UNL1        0.1811
      6 O          18.5900   69.9336   -7.0507 O.3     1  UNL1       -0.3308
      7 O          17.9300   70.0085   -9.9747 O.3     1  UNL1       -0.3794
      8 O          15.7273   71.1463   -8.8388 O.3     1  UNL1       -0.3779
      9 C          18.1469   71.0907   -9.0707 C.3     1  UNL1        0.1713
     10 C          16.9560   71.2528   -8.1492 C.3     1  UNL1        0.1895
     11 C          19.2464   70.6782   -8.1000 C.3     1  UNL1        0.1764
     12 C          17.1694   70.1224   -7.1568 C.3     1  UNL1        0.2383
     13 H          17.2320   70.2487  -10.6048 H       1  UNL1        0.2105
     14 H          15.6384   71.8877   -9.4578 H       1  UNL1        0.2106
     15 O          16.6704   68.2026   -5.1460 O.2     1  UNL1       -0.2464
     16 O          15.1404   71.4081   -2.2092 O.2     1  UNL1       -0.2670
     17 N          16.6412   70.4276   -5.8571 N.ar    1  UNL1       -0.2551
     18 N          15.9092   69.8003   -3.6853 N.ar    1  UNL1       -0.2743
     19 C          16.4267   69.3898   -4.9204 C.ar    1  UNL1        0.3323
     20 C          16.3419   71.7438   -5.5223 C.ar    1  UNL1        0.0869
     21 C          15.8476   72.1185   -4.3406 C.ar    1  UNL1        0.0795
     22 C          15.5943   71.0955   -3.3055 C.ar    1  UNL1        0.2626
     23 H          15.7512   69.0944   -3.0170 H       1  UNL1        0.1734
     24 O          21.2517   73.2668   -5.0000 O.3     1  UNL1       -0.2703
     25 P          22.6341   73.5530   -4.2127 P.3     1  UNL1        0.2208
     26 O          22.8109   75.1558   -4.3440 O.co2   1  UNL1       -0.4371
     27 O          23.8043   72.7577   -4.7149 O.2     1  UNL1       -0.5170
     28 O          22.2770   73.3083   -2.6579 O.3     1  UNL1       -0.2858
     29 O          23.7687   73.3121   -0.8163 O.3     1  UNL1       -0.3258
     30 O          21.0558   70.5091    0.5380 O.3     1  UNL1       -0.3794
     31 O          21.1112   73.1209    1.7312 O.3     1  UNL1       -0.3794
     32 O          21.7899   70.5732   -2.2614 O.3     1  UNL1       -0.3775
     33 C          21.4746   71.6904   -0.1510 C.3     1  UNL1        0.1715
     34 C          22.1292   72.6304    0.8632 C.3     1  UNL1        0.1694
     35 C          22.4679   71.3043   -1.2453 C.3     1  UNL1        0.1967
     36 C          22.8394   73.7954    0.1607 C.3     1  UNL1        0.1761
     37 C          23.1540   72.5332   -1.8446 C.3     1  UNL1        0.2704
     38 H          20.4246   70.7472    1.2339 H       1  UNL1        0.2105
     39 H          20.6703   72.3753    2.1681 H       1  UNL1        0.2105
     40 H          21.3601   69.7977   -1.8694 H       1  UNL1        0.2106
     41 O          24.9123   74.0802    1.3143 O.3     1  UNL1       -0.3794
     42 C          23.6312   74.6575    1.1414 C.3     1  UNL1        0.1693
     43 H          25.4276   74.6186    1.9358 H       1  UNL1        0.2105
@<TRIPOS>UNITY_ATOM_ATTR
2 1
charge -1
26 1
charge -1
@<TRIPOS>BOND
     1    25    28    1
     2    25    24    1
     3    25    26    1
     4    25    27    2
     5     1     4    1
     6     1    24    1
     7     1     2    1
     8     1     3    2
     9     6    11    1
    10     6    12    1
    11    29    36    1
    12    29    37    1
    13     7     9    1
    14     7    13    1
    15     8    10    1
    16     8    14    1
    17    28    37    1
    18     4     5    1
    19    30    33    1
    20    30    38    1
    21    31    34    1
    22    31    39    1
    23    32    35    1
    24    32    40    1
    25    41    42    1
    26    41    43    1
    27    15    19    2
    28    16    22    2
    29    17    12    1
    30    17    19   ar
    31    17    20   ar
    32    18    19   ar
    33    18    22   ar
    34    18    23    1
    35     9    10    1
    36     9    11    1
    37    10    12    1
    38    11     5    1
    39    33    34    1
    40    33    35    1
    41    34    36    1
    42    35    37    1
    43    36    42    1
    44    20    21   ar
    45    21    22   ar
@<TRIPOS>MOLECULE
*****
 43 45 0 0 0
SMALL
GASTEIGER

@<TRIPOS>ATOM
      1 P          21.9608   72.7606   -4.7818 P.3     1  UNL1        0.2189
      2 O          23.5432   72.8636   -5.1026 O.co2   1  UNL1       -0.4371
      3 O          21.1845   74.0245   -5.0087 O.2     1  UNL1       -0.5170
      4 O          21.9073   72.1633   -3.2790 O.3     1  UNL1       -0.3112
      5 C          21.2413   70.9311   -3.0645 C.3     1  UNL1        0.1811
      6 O          20.5370   70.5918   -0.7924 O.3     1  UNL1       -0.3308
      7 O          18.4756   72.7063   -1.3129 O.3     1  UNL1       -0.3794
      8 O          20.3957   74.0729    0.0591 O.3     1  UNL1       -0.3779
      9 C          19.8146   72.6132   -1.7964 C.3     1  UNL1        0.1713
     10 C          20.7966   72.9454   -0.6923 C.3     1  UNL1        0.1895
     11 C          20.1173   71.1434   -2.0597 C.3     1  UNL1        0.1764
     12 C          20.7944   71.6659    0.1268 C.3     1  UNL1        0.2383
     13 H          18.2591   73.6360   -1.1378 H       1  UNL1        0.2105
     14 H          20.4135   74.8612   -0.5057 H       1  UNL1        0.2106
     15 O          21.2180   71.8997    2.9096 O.2     1  UNL1       -0.2464
     16 O          25.6613   70.7406    2.5157 O.2     1  UNL1       -0.2670
     17 N          22.0519   71.4306    0.7785 N.ar    1  UNL1       -0.2551
     18 N          23.4300   71.3222    2.7112 N.ar    1  UNL1       -0.2743
     19 C          22.1586   71.5763    2.1813 C.ar    1  UNL1        0.3323
     20 C          23.1625   71.0595    0.0282 C.ar    1  UNL1        0.0869
     21 C          24.3683   70.8221    0.5487 C.ar    1  UNL1        0.0795
     22 C          24.5648   70.9521    2.0069 C.ar    1  UNL1        0.2626
     23 H          23.5282   71.4178    3.6864 H       1  UNL1        0.1734
     24 O          21.4871   71.5083   -5.6875 O.3     1  UNL1       -0.2703
     25 P          20.8936   71.4492   -7.1900 P.3     1  UNL1        0.2208
     26 O          21.0105   69.8819   -7.5737 O.co2   1  UNL1       -0.4371
     27 O          21.5727   72.3757   -8.1567 O.2     1  UNL1       -0.5170
     28 O          19.3104   71.7090   -7.0143 O.3     1  UNL1       -0.2858
     29 O          17.7301   70.1579   -6.1697 O.3     1  UNL1       -0.3258
     30 O          15.2766   72.2697   -8.7332 O.3     1  UNL1       -0.3794
     31 O          15.0002   72.6199   -5.8961 O.3     1  UNL1       -0.3794
     32 O          18.0069   71.6883   -9.4994 O.3     1  UNL1       -0.3775
     33 C          16.3481   72.0976   -7.8017 C.3     1  UNL1        0.1715
     34 C          15.7629   71.5726   -6.4892 C.3     1  UNL1        0.1694
     35 C          17.3550   71.1034   -8.3772 C.3     1  UNL1        0.1967
     36 C          16.8716   71.1117   -5.5334 C.3     1  UNL1        0.1761
     37 C          18.3846   70.6727   -7.3310 C.3     1  UNL1        0.2704
     38 H          14.6340   72.9002   -8.3740 H       1  UNL1        0.2105
     39 H          14.3040   72.9021   -6.5100 H       1  UNL1        0.2105
     40 H          17.3444   71.9564  -10.1545 H       1  UNL1        0.2106
     41 O          15.9794   69.0998   -4.6034 O.3     1  UNL1       -0.3794
     42 C          16.3067   70.4396   -4.2839 C.3     1  UNL1        0.1693
     43 H          15.6189   68.6594   -3.8173 H       1  UNL1        0.2105
@<TRIPOS>UNITY_ATOM_ATTR
2 1
charge -1
26 1
charge -1
@<TRIPOS>BOND
     1    25    28    1
     2    25    24    1
     3    25    26    1
     4    25    27    2
     5     1     4    1
     6     1    24    1
     7     1     2    1
     8     1     3    2
     9     6    11    1
    10     6    12    1
    11    29    36    1
    12    29    37    1
    13     7     9    1
    14     7    13    1
    15     8    10    1
    16     8    14    1
    17    28    37    1
    18     4     5    1
    19    30    33    1
    20    30    38    1
    21    31    34    1
    22    31    39    1
    23    32    35    1
    24    32    40    1
    25    41    42    1
    26    41    43    1
    27    15    19    2
    28    16    22    2
    29    17    12    1
    30    17    19   ar
    31    17    20   ar
    32    18    19   ar
    33    18    22   ar
    34    18    23    1
    35     9    10    1
    36     9    11    1
    37    10    12    1
    38    11     5    1
    39    33    34    1
    40    33    35    1
    41    34    36    1
    42    35    37    1
    43    36    42    1
    44    20    21   ar
    45    21    22   ar
@<TRIPOS>MOLECULE
*****
 43 45 0 0 0
SMALL
GASTEIGER

@<TRIPOS>ATOM
      1 P          22.0377   72.8954   -3.9376 P.3     1  UNL1        0.2189
      2 O          23.4249   72.1450   -4.2979 O.co2   1  UNL1       -0.4371
      3 O          21.7703   74.1451   -4.7239 O.2     1  UNL1       -0.5170
      4 O          22.0998   73.0760   -2.3309 O.3     1  UNL1       -0.3112
      5 C          23.2426   72.6011   -1.6408 C.3     1  UNL1        0.1811
      6 O          23.9797   71.0054   -0.0025 O.3     1  UNL1       -0.3308
      7 O          21.0828   70.3232    0.3629 O.3     1  UNL1       -0.3794
      8 O          21.5878   71.9373    2.5021 O.3     1  UNL1       -0.3779
      9 C          21.6851   71.5890    0.0978 C.3     1  UNL1        0.1713
     10 C          22.3728   72.1147    1.3406 C.3     1  UNL1        0.1895
     11 C          22.8609   71.3612   -0.8440 C.3     1  UNL1        0.1764
     12 C          23.6494   71.2915    1.3664 C.3     1  UNL1        0.2383
     13 H          20.3290   70.4432    0.9622 H       1  UNL1        0.2105
     14 H          20.7874   72.4814    2.4378 H       1  UNL1        0.2106
     15 O          23.7129   74.0843    1.7835 O.2     1  UNL1       -0.2464
     16 O          27.8998   73.8873    3.6999 O.2     1  UNL1       -0.2670
     17 N          24.7435   71.9964    1.9726 N.ar    1  UNL1       -0.2551
     18 N          25.7975   73.9839    2.7376 N.ar    1  UNL1       -0.2743
     19 C          24.6761   73.3998    2.1349 C.ar    1  UNL1        0.3323
     20 C          25.8672   71.2970    2.3992 C.ar    1  UNL1        0.0869
     21 C          26.9289   71.8690    2.9709 C.ar    1  UNL1        0.0795
     22 C          26.9386   73.3316    3.1772 C.ar    1  UNL1        0.2626
     23 H          25.7732   74.9606    2.8606 H       1  UNL1        0.1734
     24 O          20.9336   71.7305   -4.1298 O.3     1  UNL1       -0.2703
     25 P          19.4932   71.5073   -3.4310 P.3     1  UNL1        0.2208
     26 O          19.0292   73.0095   -3.0493 O.co2   1  UNL1       -0.4371
     27 O          19.5125   70.5521   -2.2729 O.2     1  UNL1       -0.5170
     28 O          18.5156   71.0734   -4.6397 O.3     1  UNL1       -0.2858
     29 O          19.1902   72.3117   -6.5445 O.3     1  UNL1       -0.3258
     30 O          15.9647   70.3088   -8.1679 O.3     1  UNL1       -0.3794
     31 O          18.6302   69.5490   -8.9200 O.3     1  UNL1       -0.3794
     32 O          15.8362   71.2867   -5.4463 O.3     1  UNL1       -0.3775
     33 C          17.1069   70.4704   -7.3226 C.3     1  UNL1        0.1715
     34 C          18.3239   70.7448   -8.2082 C.3     1  UNL1        0.1694
     35 C          16.8613   71.6384   -6.3694 C.3     1  UNL1        0.1967
     36 C          19.5294   71.1915   -7.3702 C.3     1  UNL1        0.1761
     37 C          18.1354   72.0344   -5.6211 C.3     1  UNL1        0.2704
     38 H          16.1139   69.5684   -8.7753 H       1  UNL1        0.2105
     39 H          17.8607   69.2775   -9.4446 H       1  UNL1        0.2105
     40 H          15.0350   71.0383   -5.9323 H       1  UNL1        0.2106
     41 O          21.0833   72.9350   -7.8747 O.3     1  UNL1       -0.3794
     42 C          20.7056   71.6216   -8.2441 C.3     1  UNL1        0.1693
     43 H          21.8312   73.2219   -8.4225 H       1  UNL1        0.2105
@<TRIPOS>UNITY_ATOM_ATTR
2 1
charge -1
26 1
charge -1
@<TRIPOS>BOND
     1    25    28    1
     2    25    24    1
     3    25    26    1
     4    25    27    2
     5     1     4    1
     6     1    24    1
     7     1     2    1
     8     1     3    2
     9     6    11    1
    10     6    12    1
    11    29    36    1
    12    29    37    1
    13     7     9    1
    14     7    13    1
    15     8    10    1
    16     8    14    1
    17    28    37    1
    18     4     5    1
    19    30    33    1
    20    30    38    1
    21    31    34    1
    22    31    39    1
    23    32    35    1
    24    32    40    1
    25    41    42    1
    26    41    43    1
    27    15    19    2
    28    16    22    2
    29    17    12    1
    30    17    19   ar
    31    17    20   ar
    32    18    19   ar
    33    18    22   ar
    34    18    23    1
    35     9    10    1
    36     9    11    1
    37    10    12    1
    38    11     5    1
    39    33    34    1
    40    33    35    1
    41    34    36    1
    42    35    37    1
    43    36    42    1
    44    20    21   ar
    45    21    22   ar
@<TRIPOS>MOLECULE
*****
 43 45 0 0 0
SMALL
GASTEIGER

@<TRIPOS>ATOM
      1 P          20.0144   72.2462   -1.2546 P.3     1  UNL1        0.2189
      2 O          19.9561   70.6325   -1.1551 O.co2   1  UNL1       -0.4371
      3 O          18.8032   72.9579   -0.7273 O.2     1  UNL1       -0.5170
      4 O          20.3741   72.5270   -2.8069 O.3     1  UNL1       -0.3112
      5 C          19.7734   71.7119   -3.7982 C.3     1  UNL1        0.1811
      6 O          18.0592   72.4701   -5.3016 O.3     1  UNL1       -0.3308
      7 O          16.0953   71.4878   -3.2598 O.3     1  UNL1       -0.3794
      8 O          16.0767   69.4873   -5.1129 O.3     1  UNL1       -0.3779
      9 C          17.3556   70.9364   -3.6378 C.3     1  UNL1        0.1713
     10 C          17.2508   70.2640   -4.9908 C.3     1  UNL1        0.1895
     11 C          18.3049   72.0918   -3.9294 C.3     1  UNL1        0.1764
     12 C          17.2657   71.4536   -5.9357 C.3     1  UNL1        0.2383
     13 H          15.4723   70.7687   -3.0682 H       1  UNL1        0.2105
     14 H          16.1150   68.7433   -4.4917 H       1  UNL1        0.2106
     15 O          15.8144   70.4789   -8.1542 O.2     1  UNL1       -0.2464
     16 O          19.6031   70.2619  -10.7695 O.2     1  UNL1       -0.2670
     17 N          17.8476   71.1344   -7.2089 N.ar    1  UNL1       -0.2551
     18 N          17.7020   70.3718   -9.4547 N.ar    1  UNL1       -0.2743
     19 C          17.0308   70.6505   -8.2573 C.ar    1  UNL1        0.3323
     20 C          19.2136   71.3023   -7.4081 C.ar    1  UNL1        0.0869
     21 C          19.8386   71.0307   -8.5557 C.ar    1  UNL1        0.0795
     22 C          19.0576   70.5210   -9.7013 C.ar    1  UNL1        0.2626
     23 H          17.1533   70.0332  -10.1990 H       1  UNL1        0.1734
     24 O          21.3926   72.6078   -0.4912 O.3     1  UNL1       -0.2703
     25 P          22.0174   74.0304   -0.0452 P.3     1  UNL1        0.2208
     26 O          21.6149   74.1388    1.5180 O.co2   1  UNL1       -0.4371
     27 O          21.5649   75.1910   -0.8831 O.2     1  UNL1       -0.5170
     28 O          23.6137   73.7917   -0.0395 O.3     1  UNL1       -0.2858
     29 O          24.1378   73.1224    2.1727 O.3     1  UNL1       -0.3258
     30 O          21.6398   70.0090    1.1158 O.3     1  UNL1       -0.3794
     31 O          20.7190   71.9985    2.9710 O.3     1  UNL1       -0.3794
     32 O          23.4873   71.1011   -0.8268 O.3     1  UNL1       -0.3775
     33 C          22.1024   71.3622    1.1265 C.3     1  UNL1        0.1715
     34 C          22.0801   71.8652    2.5712 C.3     1  UNL1        0.1694
     35 C          23.5213   71.4092    0.5626 C.3     1  UNL1        0.1967
     36 C          22.8093   73.2092    2.7012 C.3     1  UNL1        0.1761
     37 C          24.1734   72.7746    0.7872 C.3     1  UNL1        0.2704
     38 H          20.7392   69.9722    1.4721 H       1  UNL1        0.2105
     39 H          20.2698   71.1430    2.8837 H       1  UNL1        0.2105
     40 H          23.0726   70.2344   -0.9556 H       1  UNL1        0.2106
     41 O          21.7904   73.2128    4.8624 O.3     1  UNL1       -0.3794
     42 C          22.9365   73.6525    4.1570 C.3     1  UNL1        0.1693
     43 H          21.8577   73.4875    5.7907 H       1  UNL1        0.2105
@<TRIPOS>UNITY_ATOM_ATTR
2 1
charge -1
26 1
charge -1
@<TRIPOS>BOND
     1    25    28    1
     2    25    24    1
     3    25    26    1
     4    25    27    2
     5     1     4    1
     6     1    24    1
     7     1     2    1
     8     1     3    2
     9     6    11    1
    10     6    12    1
    11    29    36    1
    12    29    37    1
    13     7     9    1
    14     7    13    1
    15     8    10    1
    16     8    14    1
    17    28    37    1
    18     4     5    1
    19    30    33    1
    20    30    38    1
    21    31    34    1
    22    31    39    1
    23    32    35    1
    24    32    40    1
    25    41    42    1
    26    41    43    1
    27    15    19    2
    28    16    22    2
    29    17    12    1
    30    17    19   ar
    31    17    20   ar
    32    18    19   ar
    33    18    22   ar
    34    18    23    1
    35     9    10    1
    36     9    11    1
    37    10    12    1
    38    11     5    1
    39    33    34    1
    40    33    35    1
    41    34    36    1
    42    35    37    1
    43    36    42    1
    44    20    21   ar
    45    21    22   ar
@<TRIPOS>MOLECULE
*****
 43 45 0 0 0
SMALL
GASTEIGER

@<TRIPOS>ATOM
      1 P          23.5482   73.6025   -4.2735 P.3     1  UNL1        0.2189
      2 O          22.8530   75.0535   -4.4424 O.co2   1  UNL1       -0.4371
      3 O          25.0152   73.6352   -3.9598 O.2     1  UNL1       -0.5170
      4 O          23.1363   72.8147   -5.6254 O.3     1  UNL1       -0.3112
      5 C          21.8231   72.2929   -5.7304 C.3     1  UNL1        0.1811
      6 O          20.0926   72.1779   -7.3935 O.3     1  UNL1       -0.3308
      7 O          20.0749   75.1752   -7.3131 O.3     1  UNL1       -0.3794
      8 O          17.9054   74.5269   -5.7934 O.3     1  UNL1       -0.3779
      9 C          20.2768   74.2453   -6.2501 C.3     1  UNL1        0.1713
     10 C          18.9647   73.5945   -5.8646 C.3     1  UNL1        0.1895
     11 C          21.0669   73.0655   -6.8025 C.3     1  UNL1        0.1764
     12 C          18.7766   72.5800   -6.9797 C.3     1  UNL1        0.2383
     13 H          19.5726   75.9378   -6.9843 H       1  UNL1        0.2105
     14 H          18.0714   75.1504   -5.0691 H       1  UNL1        0.2106
     15 O          19.0984   71.3398   -4.4625 O.2     1  UNL1       -0.2464
     16 O          15.9318   68.1346   -5.4322 O.2     1  UNL1       -0.2670
     17 N          18.0488   71.4201   -6.5480 N.ar    1  UNL1       -0.2551
     18 N          17.5213   69.7450   -4.9473 N.ar    1  UNL1       -0.2743
     19 C          18.2861   70.8747   -5.2647 C.ar    1  UNL1        0.3323
     20 C          17.1117   70.8358   -7.3930 C.ar    1  UNL1        0.0869
     21 C          16.3915   69.7578   -7.0758 C.ar    1  UNL1        0.0795
     22 C          16.5787   69.1266   -5.7535 C.ar    1  UNL1        0.2626
     23 H          17.6699   69.3476   -4.0586 H       1  UNL1        0.1734
     24 O          22.6348   72.8908   -3.1456 O.3     1  UNL1       -0.2703
     25 P          22.8087   71.4820   -2.3723 P.3     1  UNL1        0.2208
     26 O          24.2023   70.9063   -2.9588 O.co2   1  UNL1       -0.4371
     27 O          21.6416   70.5497   -2.5221 O.2     1  UNL1       -0.5170
     28 O          23.1462   71.8917   -0.8481 O.3     1  UNL1       -0.2858
     29 O          24.4131   70.9801    0.9354 O.3     1  UNL1       -0.3258
     30 O          20.9412   71.8767    2.9831 O.3     1  UNL1       -0.3794
     31 O          23.2918   73.4701    3.4117 O.3     1  UNL1       -0.3794
     32 O          20.7992   70.8471    0.2814 O.3     1  UNL1       -0.3775
     33 C          21.9611   72.0715    1.9996 C.3     1  UNL1        0.1715
     34 C          23.3012   72.2233    2.7220 C.3     1  UNL1        0.1694
     35 C          21.9886   70.8648    1.0633 C.3     1  UNL1        0.1967
     36 C          24.4731   72.1686    1.7327 C.3     1  UNL1        0.1761
     37 C          23.2197   70.8823    0.1555 C.3     1  UNL1        0.2704
     38 H          20.9181   72.6396    3.5806 H       1  UNL1        0.2105
     39 H          22.5469   73.4918    4.0327 H       1  UNL1        0.2105
     40 H          20.0271   70.8359    0.8676 H       1  UNL1        0.2106
     41 O          26.3127   70.8313    2.4650 O.3     1  UNL1       -0.3794
     42 C          25.8235   72.1597    2.4457 C.3     1  UNL1        0.1693
     43 H          27.1720   70.8103    2.9156 H       1  UNL1        0.2105
@<TRIPOS>UNITY_ATOM_ATTR
2 1
charge -1
26 1
charge -1
@<TRIPOS>BOND
     1    25    28    1
     2    25    24    1
     3    25    26    1
     4    25    27    2
     5     1     4    1
     6     1    24    1
     7     1     2    1
     8     1     3    2
     9     6    11    1
    10     6    12    1
    11    29    36    1
    12    29    37    1
    13     7     9    1
    14     7    13    1
    15     8    10    1
    16     8    14    1
    17    28    37    1
    18     4     5    1
    19    30    33    1
    20    30    38    1
    21    31    34    1
    22    31    39    1
    23    32    35    1
    24    32    40    1
    25    41    42    1
    26    41    43    1
    27    15    19    2
    28    16    22    2
    29    17    12    1
    30    17    19   ar
    31    17    20   ar
    32    18    19   ar
    33    18    22   ar
    34    18    23    1
    35     9    10    1
    36     9    11    1
    37    10    12    1
    38    11     5    1
    39    33    34    1
    40    33    35    1
    41    34    36    1
    42    35    37    1
    43    36    42    1
    44    20    21   ar
    45    21    22   ar
@<TRIPOS>MOLECULE
*****
 43 45 0 0 0
SMALL
GASTEIGER

@<TRIPOS>ATOM
      1 P          21.8759   72.4907   -5.6351 P.3     1  UNL1        0.2189
      2 O          21.2514   73.9673   -5.4180 O.co2   1  UNL1       -0.4371
      3 O          23.1404   72.4498   -6.4419 O.2     1  UNL1       -0.5170
      4 O          20.6392   71.6286   -6.2228 O.3     1  UNL1       -0.3112
      5 C          20.0656   72.0236   -7.4568 C.3     1  UNL1        0.1811
      6 O          18.8623   69.9768   -7.0874 O.3     1  UNL1       -0.3308
      7 O          18.1351   70.0987   -9.9938 O.3     1  UNL1       -0.3794
      8 O          15.8727   71.0128   -8.7762 O.3     1  UNL1       -0.3779
      9 C          18.2833   71.1631   -9.0555 C.3     1  UNL1        0.1713
     10 C          17.1035   71.1954   -8.1064 C.3     1  UNL1        0.1895
     11 C          19.4334   70.8084   -8.1213 C.3     1  UNL1        0.1764
     12 C          17.4292   70.0526   -7.1599 C.3     1  UNL1        0.2383
     13 H          17.4064   70.3028  -10.6015 H       1  UNL1        0.2105
     14 H          15.7107   71.7655   -9.3661 H       1  UNL1        0.2106
     15 O          16.2893   68.0348   -5.5452 O.2     1  UNL1       -0.2464
     16 O          15.4544   70.9967   -2.1143 O.2     1  UNL1       -0.2670
     17 N          16.9063   70.2685   -5.8403 N.ar    1  UNL1       -0.2551
     18 N          15.8747   69.5112   -3.8381 N.ar    1  UNL1       -0.2743
     19 C          16.3544   69.1877   -5.1137 C.ar    1  UNL1        0.3323
     20 C          16.9443   71.5404   -5.2794 C.ar    1  UNL1        0.0869
     21 C          16.4814   71.8326   -4.0621 C.ar    1  UNL1        0.0795
     22 C          15.8888   70.7600   -3.2373 C.ar    1  UNL1        0.2626
     23 H          15.4854   68.7742   -3.3137 H       1  UNL1        0.1734
     24 O          22.0228   71.9326   -4.1252 O.3     1  UNL1       -0.2703
     25 P          23.2521   72.0132   -3.0786 P.3     1  UNL1        0.2208
     26 O          23.9178   73.4527   -3.3984 O.co2   1  UNL1       -0.4371
     27 O          24.2068   70.8575   -3.1605 O.2     1  UNL1       -0.5170
     28 O          22.5499   72.2000   -1.6374 O.3     1  UNL1       -0.2858
     29 O          23.4958   70.6749   -0.0895 O.3     1  UNL1       -0.3258
     30 O          20.4636   72.2039    2.2597 O.3     1  UNL1       -0.3794
     31 O          23.1860   72.9409    2.8016 O.3     1  UNL1       -0.3794
     32 O          20.0043   71.7218   -0.5574 O.3     1  UNL1       -0.3775
     33 C          21.4894   72.2490    1.2641 C.3     1  UNL1        0.1715
     34 C          22.8175   71.8781    1.9269 C.3     1  UNL1        0.1694
     35 C          21.1489   71.2593    0.1514 C.3     1  UNL1        0.1967
     36 C          23.9136   71.6446    0.8784 C.3     1  UNL1        0.1761
     37 C          22.3235   71.0628   -0.8086 C.3     1  UNL1        0.2704
     38 H          20.6735   72.8304    2.9689 H       1  UNL1        0.2105
     39 H          22.4853   73.0784    3.4583 H       1  UNL1        0.2105
     40 H          19.2677   71.8419    0.0613 H       1  UNL1        0.2106
     41 O          24.8643   70.2588    2.5768 O.3     1  UNL1       -0.3794
     42 C          25.2034   71.1210    1.5064 C.3     1  UNL1        0.1693
     43 H          25.6755   69.9176    2.9859 H       1  UNL1        0.2105
@<TRIPOS>UNITY_ATOM_ATTR
2 1
charge -1
26 1
charge -1
@<TRIPOS>BOND
     1    25    28    1
     2    25    24    1
     3    25    26    1
     4    25    27    2
     5     1     4    1
     6     1    24    1
     7     1     2    1
     8     1     3    2
     9     6    11    1
    10     6    12    1
    11    29    36    1
    12    29    37    1
    13     7     9    1
    14     7    13    1
    15     8    10    1
    16     8    14    1
    17    28    37    1
    18     4     5    1
    19    30    33    1
    20    30    38    1
    21    31    34    1
    22    31    39    1
    23    32    35    1
    24    32    40    1
    25    41    42    1
    26    41    43    1
    27    15    19    2
    28    16    22    2
    29    17    12    1
    30    17    19   ar
    31    17    20   ar
    32    18    19   ar
    33    18    22   ar
    34    18    23    1
    35     9    10    1
    36     9    11    1
    37    10    12    1
    38    11     5    1
    39    33    34    1
    40    33    35    1
    41    34    36    1
    42    35    37    1
    43    36    42    1
    44    20    21   ar
    45    21    22   ar
@<TRIPOS>MOLECULE
*****
 43 45 0 0 0
SMALL
GASTEIGER

@<TRIPOS>ATOM
      1 P          22.8614   73.2523   -3.7120 P.3     1  UNL1        0.2189
      2 O          24.1623   72.3685   -4.0914 O.co2   1  UNL1       -0.4371
      3 O          23.0718   74.7375   -3.7476 O.2     1  UNL1       -0.5170
      4 O          22.3797   72.6447   -2.2919 O.3     1  UNL1       -0.3112
      5 C          23.2958   72.6446   -1.2109 C.3     1  UNL1        0.1811
      6 O          24.2628   71.1885    0.4379 O.3     1  UNL1       -0.3308
      7 O          21.4892   70.1293    0.8575 O.3     1  UNL1       -0.3794
      8 O          21.8012   71.8303    2.9660 O.3     1  UNL1       -0.3779
      9 C          21.9122   71.4602    0.5656 C.3     1  UNL1        0.1713
     10 C          22.5395   72.0931    1.7901 C.3     1  UNL1        0.1895
     11 C          23.0951   71.3774   -0.3911 C.3     1  UNL1        0.1764
     12 C          23.9155   71.4493    1.8076 C.3     1  UNL1        0.2383
     13 H          20.7342   70.1564    1.4667 H       1  UNL1        0.2105
     14 H          20.9341   72.2608    2.9065 H       1  UNL1        0.2106
     15 O          26.5678   70.6557    2.3674 O.2     1  UNL1       -0.2464
     16 O          27.6547   74.8137    4.0321 O.2     1  UNL1       -0.2670
     17 N          24.9128   72.3043    2.3870 N.ar    1  UNL1       -0.2551
     18 N          27.1069   72.7268    3.1957 N.ar    1  UNL1       -0.2743
     19 C          26.2149   71.8076    2.6286 C.ar    1  UNL1        0.3323
     20 C          24.5959   73.6195    2.7089 C.ar    1  UNL1        0.0869
     21 C          25.4577   74.4829    3.2503 C.ar    1  UNL1        0.0795
     22 C          26.8390   74.0436    3.5346 C.ar    1  UNL1        0.2626
     23 H          28.0198   72.4029    3.3733 H       1  UNL1        0.1734
     24 O          21.7392   72.7071   -4.7398 O.3     1  UNL1       -0.2703
     25 P          20.1273   72.8259   -4.7125 P.3     1  UNL1        0.2208
     26 O          19.8745   74.4209   -4.6150 O.co2   1  UNL1       -0.4371
     27 O          19.4697   72.0270   -3.6248 O.2     1  UNL1       -0.5170
     28 O          19.6632   72.4303   -6.2069 O.3     1  UNL1       -0.2858
     29 O          18.9066   70.1843   -6.2048 O.3     1  UNL1       -0.3258
     30 O          18.6937   70.9487  -10.2572 O.3     1  UNL1       -0.3794
     31 O          16.2740   70.7456   -8.7235 O.3     1  UNL1       -0.3794
     32 O          20.8859   72.0192   -8.6991 O.3     1  UNL1       -0.3775
     33 C          18.6046   71.2647   -8.8652 C.3     1  UNL1        0.1715
     34 C          17.5524   70.3517   -8.2326 C.3     1  UNL1        0.1694
     35 C          19.9690   71.0439   -8.2149 C.3     1  UNL1        0.1967
     36 C          17.5881   70.4434   -6.7011 C.3     1  UNL1        0.1761
     37 C          19.8842   71.1073   -6.6888 C.3     1  UNL1        0.2704
     38 H          17.8307   71.0872  -10.6762 H       1  UNL1        0.2105
     39 H          16.2650   70.6836   -9.6916 H       1  UNL1        0.2105
     40 H          20.9308   71.9687   -9.6662 H       1  UNL1        0.2106
     41 O          15.4862   69.3151   -6.8337 O.3     1  UNL1       -0.3794
     42 C          16.6568   69.4262   -6.0453 C.3     1  UNL1        0.1693
     43 H          14.8842   68.6707   -6.4286 H       1  UNL1        0.2105
@<TRIPOS>UNITY_ATOM_ATTR
2 1
charge -1
26 1
charge -1
@<TRIPOS>BOND
     1    25    28    1
     2    25    24    1
     3    25    26    1
     4    25    27    2
     5     1     4    1
     6     1    24    1
     7     1     2    1
     8     1     3    2
     9     6    11    1
    10     6    12    1
    11    29    36    1
    12    29    37    1
    13     7     9    1
    14     7    13    1
    15     8    10    1
    16     8    14    1
    17    28    37    1
    18     4     5    1
    19    30    33    1
    20    30    38    1
    21    31    34    1
    22    31    39    1
    23    32    35    1
    24    32    40    1
    25    41    42    1
    26    41    43    1
    27    15    19    2
    28    16    22    2
    29    17    12    1
    30    17    19   ar
    31    17    20   ar
    32    18    19   ar
    33    18    22   ar
    34    18    23    1
    35     9    10    1
    36     9    11    1
    37    10    12    1
    38    11     5    1
    39    33    34    1
    40    33    35    1
    41    34    36    1
    42    35    37    1
    43    36    42    1
    44    20    21   ar
    45    21    22   ar
@<TRIPOS>MOLECULE
*****
 43 45 0 0 0
SMALL
GASTEIGER

@<TRIPOS>ATOM
      1 P          17.8532   69.7831   -2.3941 P.3     1  UNL1        0.2189
      2 O          17.3189   68.2845   -2.1004 O.co2   1  UNL1       -0.4371
      3 O          19.1363   70.1447   -1.7054 O.2     1  UNL1       -0.5170
      4 O          16.5820   70.7231   -2.0501 O.3     1  UNL1       -0.3112
      5 C          15.6415   70.2652   -1.0942 C.3     1  UNL1        0.1811
      6 O          13.5083   69.2298   -1.4829 O.3     1  UNL1       -0.3308
      7 O          12.4197   72.0097   -1.7613 O.3     1  UNL1       -0.3794
      8 O          11.6770   71.3316    0.7735 O.3     1  UNL1       -0.3779
      9 C          13.4395   71.5232   -0.8903 C.3     1  UNL1        0.1713
     10 C          12.8283   70.7143    0.2347 C.3     1  UNL1        0.1895
     11 C          14.2365   70.4666   -1.6451 C.3     1  UNL1        0.1764
     12 C          12.5165   69.3980   -0.4569 C.3     1  UNL1        0.2383
     13 H          11.8974   72.6862   -1.3013 H       1  UNL1        0.2105
     14 H          11.9274   72.1647    1.2025 H       1  UNL1        0.2106
     15 O          11.0208   67.0214   -0.7613 O.2     1  UNL1       -0.2464
     16 O          12.8385   65.1727    3.0491 O.2     1  UNL1       -0.2670
     17 N          12.5797   68.2793    0.4407 N.ar    1  UNL1       -0.2551
     18 N          11.9273   66.1028    1.1361 N.ar    1  UNL1       -0.2743
     19 C          11.7867   67.1335    0.1982 C.ar    1  UNL1        0.3323
     20 C          13.4212   68.3250    1.5469 C.ar    1  UNL1        0.0869
     21 C          13.5428   67.3341    2.4326 C.ar    1  UNL1        0.0795
     22 C          12.7491   66.1014    2.2521 C.ar    1  UNL1        0.2626
     23 H          11.3843   65.2947    0.9877 H       1  UNL1        0.1734
     24 O          17.9180   69.8360   -4.0084 O.3     1  UNL1       -0.2703
     25 P          16.7574   69.6827   -5.1230 P.3     1  UNL1        0.2208
     26 O          15.8402   70.9943   -4.8865 O.co2   1  UNL1       -0.4371
     27 O          16.0084   68.3832   -5.0567 O.2     1  UNL1       -0.5170
     28 O          17.5025   69.9543   -6.5287 O.3     1  UNL1       -0.2858
     29 O          18.3859   72.1446   -6.3313 O.3     1  UNL1       -0.3258
     30 O          19.7265   71.2321  -10.1288 O.3     1  UNL1       -0.3794
     31 O          21.5954   71.3275   -7.9502 O.3     1  UNL1       -0.3794
     32 O          17.1011   70.3606   -9.2762 O.3     1  UNL1       -0.3775
     33 C          19.3786   70.9579   -8.7690 C.3     1  UNL1        0.1715
     34 C          20.2613   71.8207   -7.8649 C.3     1  UNL1        0.1694
     35 C          17.9030   71.2895   -8.5547 C.3     1  UNL1        0.1967
     36 C          19.7696   71.7831   -6.4116 C.3     1  UNL1        0.1761
     37 C          17.5298   71.2720   -7.0713 C.3     1  UNL1        0.2704
     38 H          20.6622   71.0232  -10.2717 H       1  UNL1        0.2105
     39 H          21.8935   71.3562   -8.8729 H       1  UNL1        0.2105
     40 H          17.3467   70.3815  -10.2138 H       1  UNL1        0.2106
     41 O          21.7635   72.1564   -5.1491 O.3     1  UNL1       -0.3794
     42 C          20.5378   72.7585   -5.5225 C.3     1  UNL1        0.1693
     43 H          22.2633   72.7660   -4.5832 H       1  UNL1        0.2105
@<TRIPOS>UNITY_ATOM_ATTR
2 1
charge -1
26 1
charge -1
@<TRIPOS>BOND
     1    25    28    1
     2    25    24    1
     3    25    26    1
     4    25    27    2
     5     1     4    1
     6     1    24    1
     7     1     2    1
     8     1     3    2
     9     6    11    1
    10     6    12    1
    11    29    36    1
    12    29    37    1
    13     7     9    1
    14     7    13    1
    15     8    10    1
    16     8    14    1
    17    28    37    1
    18     4     5    1
    19    30    33    1
    20    30    38    1
    21    31    34    1
    22    31    39    1
    23    32    35    1
    24    32    40    1
    25    41    42    1
    26    41    43    1
    27    15    19    2
    28    16    22    2
    29    17    12    1
    30    17    19   ar
    31    17    20   ar
    32    18    19   ar
    33    18    22   ar
    34    18    23    1
    35     9    10    1
    36     9    11    1
    37    10    12    1
    38    11     5    1
    39    33    34    1
    40    33    35    1
    41    34    36    1
    42    35    37    1
    43    36    42    1
    44    20    21   ar
    45    21    22   ar
@<TRIPOS>MOLECULE
*****
 43 45 0 0 0
SMALL
GASTEIGER

@<TRIPOS>ATOM
      1 P          19.4103   72.4921   -2.8479 P.3     1  UNL1        0.2189
      2 O          19.2360   74.0679   -2.5256 O.co2   1  UNL1       -0.4371
      3 O          18.1799   71.8129   -3.3736 O.2     1  UNL1       -0.5170
      4 O          20.0199   71.8808   -1.4795 O.3     1  UNL1       -0.3112
      5 C          20.6544   72.7620   -0.5692 C.3     1  UNL1        0.1811
      6 O          22.7925   73.3638    0.3475 O.3     1  UNL1       -0.3308
      7 O          23.9226   71.1414   -1.3182 O.3     1  UNL1       -0.3794
      8 O          23.7852   70.0150    1.1615 O.3     1  UNL1       -0.3779
      9 C          22.6708   71.2120   -0.6376 C.3     1  UNL1        0.1713
     10 C          22.8736   71.0502    0.8545 C.3     1  UNL1        0.1895
     11 C          22.1633   72.6452   -0.7360 C.3     1  UNL1        0.1764
     12 C          23.3911   72.4220    1.2527 C.3     1  UNL1        0.2383
     13 H          24.2665   70.2352   -1.2692 H       1  UNL1        0.2105
     14 H          23.4105   69.1628    0.8893 H       1  UNL1        0.2106
     15 O          20.8997   71.8303    2.4446 O.2     1  UNL1       -0.2464
     16 O          22.1203   73.8225    6.4173 O.2     1  UNL1       -0.2670
     17 N          23.0311   72.7740    2.5972 N.ar    1  UNL1       -0.2551
     18 N          21.5095   72.8226    4.4217 N.ar    1  UNL1       -0.2743
     19 C          21.7540   72.4312    3.0992 C.ar    1  UNL1        0.3323
     20 C          23.9398   73.4513    3.4031 C.ar    1  UNL1        0.0869
     21 C          23.6907   73.8185    4.6619 C.ar    1  UNL1        0.0795
     22 C          22.3797   73.4984    5.2625 C.ar    1  UNL1        0.2626
     23 H          20.6262   72.5947    4.7927 H       1  UNL1        0.1734
     24 O          20.6756   72.4646   -3.8535 O.3     1  UNL1       -0.2703
     25 P          20.8826   73.1181   -5.3174 P.3     1  UNL1        0.2208
     26 O          22.2566   72.4394   -5.8358 O.co2   1  UNL1       -0.4371
     27 O          20.8919   74.6194   -5.3253 O.2     1  UNL1       -0.5170
     28 O          19.7294   72.4516   -6.2291 O.3     1  UNL1       -0.2858
     29 O          18.8699   70.2447   -6.1436 O.3     1  UNL1       -0.3258
     30 O          18.5688   70.9132  -10.2073 O.3     1  UNL1       -0.3794
     31 O          16.1904   70.8642   -8.5983 O.3     1  UNL1       -0.3794
     32 O          20.8550   71.9191   -8.7439 O.3     1  UNL1       -0.3775
     33 C          18.5371   71.2690   -8.8224 C.3     1  UNL1        0.1715
     34 C          17.4635   70.4233   -8.1345 C.3     1  UNL1        0.1694
     35 C          19.9091   71.0009   -8.2066 C.3     1  UNL1        0.1967
     36 C          17.5503   70.5528   -6.6078 C.3     1  UNL1        0.1761
     37 C          19.8740   71.1077   -6.6810 C.3     1  UNL1        0.2704
     38 H          17.7008   71.0815  -10.6044 H       1  UNL1        0.2105
     39 H          16.1489   70.7777   -9.5637 H       1  UNL1        0.2105
     40 H          20.8678   71.8414   -9.7102 H       1  UNL1        0.2106
     41 O          15.5209   69.3026   -6.7733 O.3     1  UNL1       -0.3794
     42 C          16.5933   69.5979   -5.8976 C.3     1  UNL1        0.1693
     43 H          14.9039   68.6955   -6.3347 H       1  UNL1        0.2105
@<TRIPOS>UNITY_ATOM_ATTR
2 1
charge -1
26 1
charge -1
@<TRIPOS>BOND
     1    25    28    1
     2    25    24    1
     3    25    26    1
     4    25    27    2
     5     1     4    1
     6     1    24    1
     7     1     2    1
     8     1     3    2
     9     6    11    1
    10     6    12    1
    11    29    36    1
    12    29    37    1
    13     7     9    1
    14     7    13    1
    15     8    10    1
    16     8    14    1
    17    28    37    1
    18     4     5    1
    19    30    33    1
    20    30    38    1
    21    31    34    1
    22    31    39    1
    23    32    35    1
    24    32    40    1
    25    41    42    1
    26    41    43    1
    27    15    19    2
    28    16    22    2
    29    17    12    1
    30    17    19   ar
    31    17    20   ar
    32    18    19   ar
    33    18    22   ar
    34    18    23    1
    35     9    10    1
    36     9    11    1
    37    10    12    1
    38    11     5    1
    39    33    34    1
    40    33    35    1
    41    34    36    1
    42    35    37    1
    43    36    42    1
    44    20    21   ar
    45    21    22   ar
@<TRIPOS>MOLECULE
*****
 43 45 0 0 0
SMALL
GASTEIGER

@<TRIPOS>ATOM
      1 P          23.5503   72.4687   -3.4243 P.3     1  UNL1        0.2189
      2 O          23.9259   70.9364   -3.0657 O.co2   1  UNL1       -0.4371
      3 O          24.6301   73.2382   -4.1266 O.2     1  UNL1       -0.5170
      4 O          23.0507   73.0862   -2.0147 O.3     1  UNL1       -0.3112
      5 C          22.6735   72.1933   -0.9811 C.3     1  UNL1        0.1811
      6 O          20.8280   71.8073    0.5085 O.3     1  UNL1       -0.3308
      7 O          19.1887   73.4377   -1.4007 O.3     1  UNL1       -0.3794
      8 O          19.7221   75.2179    0.5950 O.3     1  UNL1       -0.3779
      9 C          20.5534   73.5993   -1.0176 C.3     1  UNL1        0.1713
     10 C          20.6425   74.1666    0.3838 C.3     1  UNL1        0.1895
     11 C          21.1578   72.2122   -0.8382 C.3     1  UNL1        0.1764
     12 C          20.3422   72.9463    1.2375 C.3     1  UNL1        0.2383
     13 H          18.7814   74.3103   -1.5215 H       1  UNL1        0.2105
     14 H          19.9555   75.9707    0.0297 H       1  UNL1        0.2106
     15 O          22.1505   70.9928    2.1818 O.2     1  UNL1       -0.2464
     16 O          22.7918   73.2424    6.1528 O.2     1  UNL1       -0.2670
     17 N          20.9967   72.9966    2.5143 N.ar    1  UNL1       -0.2551
     18 N          22.4685   72.1146    4.1582 N.ar    1  UNL1       -0.2743
     19 C          21.8862   71.9643    2.8931 C.ar    1  UNL1        0.3323
     20 C          20.7545   74.0611    3.3757 C.ar    1  UNL1        0.0869
     21 C          21.3168   74.1890    4.5794 C.ar    1  UNL1        0.0795
     22 C          22.2586   73.1535    5.0512 C.ar    1  UNL1        0.2626
     23 H          23.0914   71.4072    4.4436 H       1  UNL1        0.1734
     24 O          22.1764   72.3194   -4.2628 O.3     1  UNL1       -0.2703
     25 P          21.7160   72.9678   -5.6702 P.3     1  UNL1        0.2208
     26 O          22.7253   72.2910   -6.7383 O.co2   1  UNL1       -0.4371
     27 O          21.7144   74.4690   -5.6848 O.2     1  UNL1       -0.5170
     28 O          20.2824   72.2943   -5.9806 O.3     1  UNL1       -0.2858
     29 O          19.4087   70.1274   -5.5836 O.3     1  UNL1       -0.3258
     30 O          17.8351   70.7948   -9.3425 O.3     1  UNL1       -0.3794
     31 O          16.1060   70.8552   -7.0503 O.3     1  UNL1       -0.3794
     32 O          20.5105   71.7046   -8.7148 O.3     1  UNL1       -0.3775
     33 C          18.2679   71.1562   -8.0282 C.3     1  UNL1        0.1715
     34 C          17.4418   70.3606   -7.0156 C.3     1  UNL1        0.1694
     35 C          19.7534   70.8305   -7.8846 C.3     1  UNL1        0.1967
     36 C          18.0235   70.4913   -5.6014 C.3     1  UNL1        0.1761
     37 C          20.2186   70.9439   -6.4317 C.3     1  UNL1        0.2704
     38 H          16.8928   70.9995   -9.4404 H       1  UNL1        0.2105
     39 H          15.7506   70.7674   -7.9487 H       1  UNL1        0.2105
     40 H          20.2067   71.6233   -9.6318 H       1  UNL1        0.2106
     41 O          16.0537   70.1542   -4.2917 O.3     1  UNL1       -0.3794
     42 C          17.3104   69.5816   -4.6034 C.3     1  UNL1        0.1693
     43 H          15.5884   69.5858   -3.6576 H       1  UNL1        0.2105
@<TRIPOS>UNITY_ATOM_ATTR
2 1
charge -1
26 1
charge -1
@<TRIPOS>BOND
     1    25    28    1
     2    25    24    1
     3    25    26    1
     4    25    27    2
     5     1     4    1
     6     1    24    1
     7     1     2    1
     8     1     3    2
     9     6    11    1
    10     6    12    1
    11    29    36    1
    12    29    37    1
    13     7     9    1
    14     7    13    1
    15     8    10    1
    16     8    14    1
    17    28    37    1
    18     4     5    1
    19    30    33    1
    20    30    38    1
    21    31    34    1
    22    31    39    1
    23    32    35    1
    24    32    40    1
    25    41    42    1
    26    41    43    1
    27    15    19    2
    28    16    22    2
    29    17    12    1
    30    17    19   ar
    31    17    20   ar
    32    18    19   ar
    33    18    22   ar
    34    18    23    1
    35     9    10    1
    36     9    11    1
    37    10    12    1
    38    11     5    1
    39    33    34    1
    40    33    35    1
    41    34    36    1
    42    35    37    1
    43    36    42    1
    44    20    21   ar
    45    21    22   ar
