@<TRIPOS>MOLECULE
UD2
 46 48 0 0 0
SMALL
GASTEIGER

@<TRIPOS>ATOM
      1 P          21.9467   70.8370   -2.6782 P.3     1  UNL1        0.2189
      2 O          21.3785   69.3377   -2.8221 O.3     1  UNL1       -0.4371
      3 O          23.3054   70.9081   -3.2595 O.2     1  UNL1       -0.5170
      4 O          20.9747   71.8563   -3.4592 O.3     1  UNL1       -0.3112
      5 C          19.9586   72.6174   -2.8037 C.3     1  UNL1        0.1811
      6 C          17.8208   71.4290   -5.4408 C.3     1  UNL1        0.2383
      7 C          17.9863   70.2123   -4.4951 C.3     1  UNL1        0.1895
      8 O          16.8198   69.3872   -4.5167 O.3     1  UNL1       -0.3779
      9 C          18.1555   70.8936   -3.1150 C.3     1  UNL1        0.1713
     10 C          18.6043   72.3275   -3.4556 C.3     1  UNL1        0.1764
     11 O          18.7220   72.4110   -4.8848 O.3     1  UNL1       -0.3308
     12 O          16.9121   70.9118   -2.4119 O.3     1  UNL1       -0.3794
     13 H          16.8752   68.6123   -3.9412 H       1  UNL1        0.2106
     14 H          16.5532   70.0344   -2.2232 H       1  UNL1        0.2105
     15 N          18.2177   71.0787   -6.8064 N.ar    1  UNL1       -0.2551
     16 C          17.2845   70.6861   -7.6916 C.ar    1  UNL1        0.3323
     17 N          17.6208   70.3580   -8.9532 N.ar    1  UNL1       -0.2743
     18 C          18.9079   70.4206   -9.3506 C.ar    1  UNL1        0.2626
     19 C          19.9005   70.8332   -8.4294 C.ar    1  UNL1        0.0795
     20 C          19.5344   71.1603   -7.1723 C.ar    1  UNL1        0.0869
     21 O          16.1200   70.6252   -7.3472 O.2     1  UNL1       -0.2464
     22 O          19.2135   70.1243  -10.4922 O.2     1  UNL1       -0.2670
     23 H          16.9355   70.0759   -9.5784 H       1  UNL1        0.1734
     24 O          22.0072   71.2412   -1.1206 O.3     1  UNL1       -0.2703
     25 P          22.5812   70.5203    0.1999 P.3     1  UNL1        0.2208
     26 O          21.5605   69.3653    0.6669 O.3     1  UNL1       -0.4371
     27 O          23.9002   69.9208   -0.0988 O.2     1  UNL1       -0.5170
     28 O          22.7391   71.6061    1.3784 O.3     1  UNL1       -0.2865
     29 C          21.8577   72.7197    1.5340 C.3     1  UNL1        0.2611
     30 C          22.5842   74.0064    1.1349 C.3     1  UNL1        0.1582
     31 C          23.7758   74.2217    2.0730 C.3     1  UNL1        0.1625
     32 C          23.2727   74.2637    3.5185 C.3     1  UNL1        0.1686
     33 C          22.5195   72.9667    3.8259 C.3     1  UNL1        0.1760
     34 O          24.4167   75.4590    1.7542 O.3     1  UNL1       -0.3801
     35 O          22.3944   75.3780    3.6864 O.3     1  UNL1       -0.3794
     36 O          21.4433   72.8116    2.8986 O.3     1  UNL1       -0.3263
     37 H          25.1823   75.6596    2.3100 H       1  UNL1        0.2105
     38 H          22.0362   75.4661    4.5807 H       1  UNL1        0.2105
     39 C          22.6008   74.7319   -1.1913 C.2     1  UNL1        0.2231
     40 C          23.0919   74.6135   -2.6102 C.3     1  UNL1        0.0946
     41 N          23.0622   73.8904   -0.2452 N.am    1  UNL1       -0.2994
     42 O          21.7891   75.5852   -0.8994 O.2     1  UNL1       -0.2751
     43 H          23.7104   73.2075   -0.4784 H       1  UNL1        0.1496
     44 C          21.9621   73.0260    5.2493 C.3     1  UNL1        0.1693
     45 O          20.5675   73.3344    5.2032 O.3     1  UNL1       -0.3794
     46 H          20.1470   73.3883    6.0723 H       1  UNL1        0.2105
@<TRIPOS>BOND
     1    29    30    1
     2    30    41    1
     3    30    31    1
     4    31    34    1
     5    31    32    1
     6    32    35    1
     7    32    33    1
     8    33    36    1
     9    33    44    1
    10    39    40    1
    11    39    42    2
    12    39    41   am
    13    41    43    1
    14    29    28    1
    15    34    37    1
    16    35    38    1
    17    29    36    1
    18    44    45    1
    19    45    46    1
    20    15     6    1
    21    15    16   ar
    22    16    21    2
    23    16    17   ar
    24    17    23    1
    25    17    18   ar
    26    18    19   ar
    27    19    20   ar
    28    15    20   ar
    29    18    22    2
    30     6     7    1
    31     6    11    1
    32     7     9    1
    33     7     8    1
    34     8    13    1
    35     9    10    1
    36     9    12    1
    37    10     5    1
    38    10    11    1
    39    12    14    1
    40     5     4    1
    41     4     1    1
    42     1     2    1
    43     1    24    1
    44     1     3    2
    45    24    25    1
    46    28    25    1
    47    25    26    1
    48    25    27    2
@<TRIPOS>MOLECULE
UD2
 46 48 0 0 0
SMALL
GASTEIGER

@<TRIPOS>ATOM
      1 P          22.8982   72.0133   -3.3287 P.3     1  UNL1        0.2189
      2 O          23.4560   70.5036   -3.2991 O.3     1  UNL1       -0.4371
      3 O          23.6025   72.7796   -4.3802 O.2     1  UNL1       -0.5170
      4 O          21.3190   71.9958   -3.6441 O.3     1  UNL1       -0.3112
      5 C          20.3218   72.0361   -2.6216 C.3     1  UNL1        0.1811
      6 C          18.0114   71.3383   -5.2884 C.3     1  UNL1        0.2383
      7 C          18.0266   70.0433   -4.4371 C.3     1  UNL1        0.1895
      8 O          16.7610   69.3821   -4.4916 O.3     1  UNL1       -0.3779
      9 C          18.3025   70.5916   -3.0156 C.3     1  UNL1        0.1713
     10 C          18.9327   71.9757   -3.2617 C.3     1  UNL1        0.1764
     11 O          19.0418   72.1495   -4.6835 O.3     1  UNL1       -0.3308
     12 O          17.0818   70.7201   -2.2848 O.3     1  UNL1       -0.3794
     13 H          16.7208   68.5659   -3.9750 H       1  UNL1        0.2106
     14 H          16.6123   69.8857   -2.1520 H       1  UNL1        0.2105
     15 N          18.3406   71.0419   -6.6843 N.ar    1  UNL1       -0.2551
     16 C          17.3539   70.7883   -7.5623 C.ar    1  UNL1        0.3323
     17 N          17.6273   70.5126   -8.8513 N.ar    1  UNL1       -0.2743
     18 C          18.9043   70.4886   -9.2841 C.ar    1  UNL1        0.2626
     19 C          19.9529   70.7547   -8.3709 C.ar    1  UNL1        0.0795
     20 C          19.6494   71.0322   -7.0854 C.ar    1  UNL1        0.0869
     21 O          16.1978   70.8068   -7.1862 O.2     1  UNL1       -0.2464
     22 O          19.1532   70.2396  -10.4505 O.2     1  UNL1       -0.2670
     23 H          16.9040   70.3309   -9.4709 H       1  UNL1        0.1734
     24 O          23.1513   72.7074   -1.8978 O.3     1  UNL1       -0.2703
     25 P          23.2845   74.2343   -1.4039 P.3     1  UNL1        0.2208
     26 O          24.7435   74.7970   -1.7889 O.3     1  UNL1       -0.4371
     27 O          22.2486   75.0587   -2.0640 O.2     1  UNL1       -0.5170
     28 O          23.0872   74.3009    0.1927 O.3     1  UNL1       -0.2865
     29 C          21.8275   74.0847    0.8312 C.3     1  UNL1        0.2611
     30 C          21.9635   74.3483    2.3327 C.3     1  UNL1        0.1582
     31 C          22.9639   73.3529    2.9286 C.3     1  UNL1        0.1625
     32 C          22.4894   71.9281    2.6300 C.3     1  UNL1        0.1686
     33 C          22.3332   71.7578    1.1166 C.3     1  UNL1        0.1760
     34 O          23.0420   73.5438    4.3431 O.3     1  UNL1       -0.3801
     35 O          21.2322   71.6996    3.2692 O.3     1  UNL1       -0.3794
     36 O          21.4135   72.7330    0.6215 O.3     1  UNL1       -0.3263
     37 H          23.6591   72.9459    4.7867 H       1  UNL1        0.2105
     38 H          20.8704   70.8145    3.1218 H       1  UNL1        0.2105
     39 C          21.6714   76.6087    3.1947 C.2     1  UNL1        0.2231
     40 C          22.1662   78.0139    3.4165 C.3     1  UNL1        0.0946
     41 N          22.4454   75.7150    2.5479 N.am    1  UNL1       -0.2994
     42 O          20.5752   76.2805    3.5983 O.2     1  UNL1       -0.2751
     43 H          23.3215   75.9772    2.2242 H       1  UNL1        0.1496
     44 C          21.8021   70.3554    0.8136 C.3     1  UNL1        0.1693
     45 O          22.8917   69.4964    0.4712 O.3     1  UNL1       -0.3794
     46 H          22.6283   68.5888    0.2661 H       1  UNL1        0.2105
@<TRIPOS>BOND
     1    29    30    1
     2    30    41    1
     3    30    31    1
     4    31    34    1
     5    31    32    1
     6    32    35    1
     7    32    33    1
     8    33    36    1
     9    33    44    1
    10    39    40    1
    11    39    42    2
    12    39    41   am
    13    41    43    1
    14    29    28    1
    15    34    37    1
    16    35    38    1
    17    29    36    1
    18    44    45    1
    19    45    46    1
    20    15     6    1
    21    15    16   ar
    22    16    21    2
    23    16    17   ar
    24    17    23    1
    25    17    18   ar
    26    18    19   ar
    27    19    20   ar
    28    15    20   ar
    29    18    22    2
    30     6     7    1
    31     6    11    1
    32     7     9    1
    33     7     8    1
    34     8    13    1
    35     9    10    1
    36     9    12    1
    37    10     5    1
    38    10    11    1
    39    12    14    1
    40     5     4    1
    41     4     1    1
    42     1     2    1
    43     1    24    1
    44     1     3    2
    45    24    25    1
    46    28    25    1
    47    25    26    1
    48    25    27    2
@<TRIPOS>MOLECULE
UD2
 46 48 0 0 0
SMALL
GASTEIGER

@<TRIPOS>ATOM
      1 P          21.8755   74.4039   -5.8701 P.3     1  UNL1        0.2189
      2 O          22.9557   74.0879   -7.0209 O.3     1  UNL1       -0.4371
      3 O          22.1928   75.7035   -5.2382 O.2     1  UNL1       -0.5170
      4 O          20.4031   74.4682   -6.5194 O.3     1  UNL1       -0.3112
      5 C          20.1713   74.4032   -7.9278 C.3     1  UNL1        0.1811
      6 C          18.4524   71.3510   -7.1120 C.3     1  UNL1        0.2383
      7 C          17.3271   72.4083   -7.2451 C.3     1  UNL1        0.1895
      8 O          16.1164   71.8089   -7.7107 O.3     1  UNL1       -0.3779
      9 C          17.9103   73.3721   -8.3074 C.3     1  UNL1        0.1713
     10 C          19.4275   73.1080   -8.2627 C.3     1  UNL1        0.1764
     11 O          19.6616   72.1306   -7.2365 O.3     1  UNL1       -0.3308
     12 O          17.3866   73.0652   -9.6005 O.3     1  UNL1       -0.3794
     13 H          15.3823   72.4302   -7.8096 H       1  UNL1        0.2106
     14 H          16.4268   73.1573   -9.6690 H       1  UNL1        0.2105
     15 N          18.3927   70.6962   -5.8033 N.ar    1  UNL1       -0.2551
     16 C          17.4409   69.7774   -5.5606 C.ar    1  UNL1        0.3323
     17 N          17.3623   69.1599   -4.3670 N.ar    1  UNL1       -0.2743
     18 C          18.2447   69.4549   -3.3908 C.ar    1  UNL1        0.2626
     19 C          19.2524   70.4194   -3.6329 C.ar    1  UNL1        0.0795
     20 C          19.3103   71.0197   -4.8403 C.ar    1  UNL1        0.0869
     21 O          16.6387   69.5013   -6.4316 O.2     1  UNL1       -0.2464
     22 O          18.1749   68.8965   -2.3102 O.2     1  UNL1       -0.2670
     23 H          16.6691   68.5008   -4.2083 H       1  UNL1        0.1734
     24 O          21.9202   73.2405   -4.7575 O.3     1  UNL1       -0.2703
     25 P          23.0466   72.7160   -3.7333 P.3     1  UNL1        0.2208
     26 O          23.1536   71.1119   -3.8294 O.3     1  UNL1       -0.4371
     27 O          24.3514   73.3187   -4.0836 O.2     1  UNL1       -0.5170
     28 O          22.6455   73.1385   -2.2322 O.3     1  UNL1       -0.2865
     29 C          21.4226   72.7383   -1.6113 C.3     1  UNL1        0.2611
     30 C          20.9826   73.8098   -0.6108 C.3     1  UNL1        0.1582
     31 C          22.0424   73.9362    0.4879 C.3     1  UNL1        0.1625
     32 C          22.2410   72.5701    1.1503 C.3     1  UNL1        0.1686
     33 C          22.6327   71.5461    0.0817 C.3     1  UNL1        0.1760
     34 O          21.6052   74.8823    1.4661 O.3     1  UNL1       -0.3801
     35 O          21.0246   72.1630    1.7795 O.3     1  UNL1       -0.3794
     36 O          21.6200   71.5001   -0.9255 O.3     1  UNL1       -0.3263
     37 H          22.2297   75.0131    2.1928 H       1  UNL1        0.2105
     38 H          21.0774   71.3033    2.2200 H       1  UNL1        0.2105
     39 C          21.8789   75.9469   -1.3638 C.2     1  UNL1        0.2231
     40 C          21.7307   77.2671   -2.0736 C.3     1  UNL1        0.0946
     41 N          20.8375   75.0938   -1.3013 N.am    1  UNL1       -0.2994
     42 O          22.9363   75.6509   -0.8477 O.2     1  UNL1       -0.2751
     43 H          19.9916   75.3305   -1.7129 H       1  UNL1        0.1496
     44 C          22.7748   70.1659    0.7260 C.3     1  UNL1        0.1693
     45 O          21.5450   69.4496    0.5957 O.3     1  UNL1       -0.3794
     46 H          21.5621   68.5638    0.9829 H       1  UNL1        0.2105
@<TRIPOS>BOND
     1    29    30    1
     2    30    41    1
     3    30    31    1
     4    31    34    1
     5    31    32    1
     6    32    35    1
     7    32    33    1
     8    33    36    1
     9    33    44    1
    10    39    40    1
    11    39    42    2
    12    39    41   am
    13    41    43    1
    14    29    28    1
    15    34    37    1
    16    35    38    1
    17    29    36    1
    18    44    45    1
    19    45    46    1
    20    15     6    1
    21    15    16   ar
    22    16    21    2
    23    16    17   ar
    24    17    23    1
    25    17    18   ar
    26    18    19   ar
    27    19    20   ar
    28    15    20   ar
    29    18    22    2
    30     6     7    1
    31     6    11    1
    32     7     9    1
    33     7     8    1
    34     8    13    1
    35     9    10    1
    36     9    12    1
    37    10     5    1
    38    10    11    1
    39    12    14    1
    40     5     4    1
    41     4     1    1
    42     1     2    1
    43     1    24    1
    44     1     3    2
    45    24    25    1
    46    28    25    1
    47    25    26    1
    48    25    27    2
@<TRIPOS>MOLECULE
UD2
 46 48 0 0 0
SMALL
GASTEIGER

@<TRIPOS>ATOM
      1 P          21.7162   70.7177   -0.0634 P.3     1  UNL1        0.2189
      2 O          22.0422   69.3272    0.6793 O.3     1  UNL1       -0.4371
      3 O          22.9773   71.3392   -0.5240 O.2     1  UNL1       -0.5170
      4 O          20.7615   70.4385   -1.3300 O.3     1  UNL1       -0.3112
      5 C          20.8396   71.1900   -2.5427 C.3     1  UNL1        0.1811
      6 C          18.3057   71.1278   -5.0946 C.3     1  UNL1        0.2383
      7 C          18.1412   69.7790   -4.3491 C.3     1  UNL1        0.1895
      8 O          16.7792   69.3476   -4.3698 O.3     1  UNL1       -0.3779
      9 C          18.5826   70.1461   -2.9111 C.3     1  UNL1        0.1713
     10 C          19.4292   71.4207   -3.0910 C.3     1  UNL1        0.1764
     11 O          19.4916   71.6977   -4.4991 O.3     1  UNL1       -0.3308
     12 O          17.4429   70.4136   -2.0924 O.3     1  UNL1       -0.3794
     13 H          16.6254   68.5077   -3.9164 H       1  UNL1        0.2106
     14 H          16.8436   69.6616   -1.9934 H       1  UNL1        0.2105
     15 N          18.5045   70.9039   -6.5283 N.ar    1  UNL1       -0.2551
     16 C          17.4375   70.7706   -7.3361 C.ar    1  UNL1        0.3323
     17 N          17.5906   70.5639   -8.6575 N.ar    1  UNL1       -0.2743
     18 C          18.8254   70.4888   -9.1942 C.ar    1  UNL1        0.2626
     19 C          19.9575   70.6284   -8.3556 C.ar    1  UNL1        0.0795
     20 C          19.7745   70.8391   -7.0352 C.ar    1  UNL1        0.0869
     21 O          16.3181   70.8363   -6.8660 O.2     1  UNL1       -0.2464
     22 O          18.9653   70.3021  -10.3900 O.2     1  UNL1       -0.2670
     23 H          16.8105   70.4687   -9.2255 H       1  UNL1        0.1734
     24 O          20.9705   71.7117    0.9610 O.3     1  UNL1       -0.2703
     25 P          21.4759   72.8487    1.9831 P.3     1  UNL1        0.2208
     26 O          22.7698   73.5850    1.3688 O.3     1  UNL1       -0.4371
     27 O          20.3976   73.8398    2.1914 O.2     1  UNL1       -0.5170
     28 O          21.8619   72.1707    3.3917 O.3     1  UNL1       -0.2865
     29 C          22.1598   72.9295    4.5651 C.3     1  UNL1        0.2611
     30 C          21.0885   74.0044    4.7645 C.3     1  UNL1        0.1582
     31 C          21.1126   74.9645    3.5712 C.3     1  UNL1        0.1625
     32 C          22.5163   75.5615    3.4383 C.3     1  UNL1        0.1686
     33 C          23.5328   74.4263    3.2899 C.3     1  UNL1        0.1760
     34 O          20.1655   76.0138    3.7838 O.3     1  UNL1       -0.3801
     35 O          22.8220   76.3275    4.6050 O.3     1  UNL1       -0.3794
     36 O          23.4371   73.5531    4.4170 O.3     1  UNL1       -0.3263
     37 H          20.1267   76.6597    3.0650 H       1  UNL1        0.2105
     38 H          23.6990   76.7357    4.5897 H       1  UNL1        0.2105
     39 C          18.8737   73.8094    5.7615 C.2     1  UNL1        0.2231
     40 C          17.5186   73.1587    5.8567 C.3     1  UNL1        0.0946
     41 N          19.7708   73.3707    4.8566 N.am    1  UNL1       -0.2994
     42 O          19.1583   74.7291    6.4999 O.2     1  UNL1       -0.2751
     43 H          19.5440   72.6348    4.2667 H       1  UNL1        0.1496
     44 C          24.9441   75.0121    3.2165 C.3     1  UNL1        0.1693
     45 O          25.4866   75.1160    4.5346 O.3     1  UNL1       -0.3794
     46 H          26.3817   75.4807    4.5644 H       1  UNL1        0.2105
@<TRIPOS>BOND
     1    29    30    1
     2    30    41    1
     3    30    31    1
     4    31    34    1
     5    31    32    1
     6    32    35    1
     7    32    33    1
     8    33    36    1
     9    33    44    1
    10    39    40    1
    11    39    42    2
    12    39    41   am
    13    41    43    1
    14    29    28    1
    15    34    37    1
    16    35    38    1
    17    29    36    1
    18    44    45    1
    19    45    46    1
    20    15     6    1
    21    15    16   ar
    22    16    21    2
    23    16    17   ar
    24    17    23    1
    25    17    18   ar
    26    18    19   ar
    27    19    20   ar
    28    15    20   ar
    29    18    22    2
    30     6     7    1
    31     6    11    1
    32     7     9    1
    33     7     8    1
    34     8    13    1
    35     9    10    1
    36     9    12    1
    37    10     5    1
    38    10    11    1
    39    12    14    1
    40     5     4    1
    41     4     1    1
    42     1     2    1
    43     1    24    1
    44     1     3    2
    45    24    25    1
    46    28    25    1
    47    25    26    1
    48    25    27    2
@<TRIPOS>MOLECULE
UD2
 46 48 0 0 0
SMALL
GASTEIGER

@<TRIPOS>ATOM
      1 P          21.8380   70.7240   -0.6150 P.3     1  UNL1        0.2189
      2 O          21.5363   69.4734    0.3526 O.3     1  UNL1       -0.4371
      3 O          22.8882   70.3530   -1.5888 O.2     1  UNL1       -0.5170
      4 O          20.4935   71.1288   -1.4037 O.3     1  UNL1       -0.3112
      5 C          20.5041   71.8223   -2.6528 C.3     1  UNL1        0.1811
      6 C          18.1006   71.2437   -5.2653 C.3     1  UNL1        0.2383
      7 C          18.1054   69.9304   -4.4423 C.3     1  UNL1        0.1895
      8 O          16.8215   69.3039   -4.4739 O.3     1  UNL1       -0.3779
      9 C          18.4364   70.4401   -3.0182 C.3     1  UNL1        0.1713
     10 C          19.0962   71.8123   -3.2533 C.3     1  UNL1        0.1764
     11 O          19.1692   72.0142   -4.6737 O.3     1  UNL1       -0.3308
     12 O          17.2409   70.5845   -2.2496 O.3     1  UNL1       -0.3794
     13 H          16.7742   68.4780   -3.9737 H       1  UNL1        0.2106
     14 H          16.7532   69.7599   -2.1208 H       1  UNL1        0.2105
     15 N          18.3817   70.9694   -6.6762 N.ar    1  UNL1       -0.2551
     16 C          17.3639   70.7590   -7.5298 C.ar    1  UNL1        0.3323
     17 N          17.5930   70.5045   -8.8317 N.ar    1  UNL1       -0.2743
     18 C          18.8559   70.4585   -9.3023 C.ar    1  UNL1        0.2626
     19 C          19.9368   70.6791   -8.4151 C.ar    1  UNL1        0.0795
     20 C          19.6777   70.9363   -7.1158 C.ar    1  UNL1        0.0869
     21 O          16.2200   70.7977   -7.1195 O.2     1  UNL1       -0.2464
     22 O          19.0646   70.2287  -10.4805 O.2     1  UNL1       -0.2670
     23 H          16.8477   70.3539   -9.4334 H       1  UNL1        0.1734
     24 O          22.3401   71.9753    0.2657 O.3     1  UNL1       -0.2703
     25 P          21.7360   72.7647    1.5325 P.3     1  UNL1        0.2208
     26 O          20.6851   73.8733    1.0222 O.3     1  UNL1       -0.4371
     27 O          21.0480   71.8088    2.4276 O.2     1  UNL1       -0.5170
     28 O          22.9312   73.4867    2.3345 O.3     1  UNL1       -0.2865
     29 C          22.8312   74.8153    2.8503 C.3     1  UNL1        0.2611
     30 C          24.2116   75.2901    3.3107 C.3     1  UNL1        0.1582
     31 C          24.7005   74.3858    4.4463 C.3     1  UNL1        0.1625
     32 C          23.6716   74.4066    5.5800 C.3     1  UNL1        0.1686
     33 C          22.3117   73.9657    5.0320 C.3     1  UNL1        0.1760
     34 O          25.9561   74.8663    4.9320 O.3     1  UNL1       -0.3801
     35 O          23.5682   75.7306    6.1070 O.3     1  UNL1       -0.3794
     36 O          21.9297   74.8288    3.9591 O.3     1  UNL1       -0.3263
     37 H          26.3259   74.3393    5.6536 H       1  UNL1        0.2105
     38 H          22.9319   75.8181    6.8304 H       1  UNL1        0.2105
     39 C          26.0580   76.2011    2.0075 C.2     1  UNL1        0.2231
     40 C          27.0255   76.1298    0.8553 C.3     1  UNL1        0.0946
     41 N          25.1521   75.2201    2.1895 N.am    1  UNL1       -0.2994
     42 O          26.0939   77.1422    2.7725 O.2     1  UNL1       -0.2751
     43 H          25.1225   74.4681    1.5775 H       1  UNL1        0.1496
     44 C          21.2649   74.0410    6.1451 C.3     1  UNL1        0.1693
     45 O          20.0529   73.4264    5.7025 O.3     1  UNL1       -0.3794
     46 H          19.3430   73.4377    6.3589 H       1  UNL1        0.2105
@<TRIPOS>BOND
     1    29    30    1
     2    30    41    1
     3    30    31    1
     4    31    34    1
     5    31    32    1
     6    32    35    1
     7    32    33    1
     8    33    36    1
     9    33    44    1
    10    39    40    1
    11    39    42    2
    12    39    41   am
    13    41    43    1
    14    29    28    1
    15    34    37    1
    16    35    38    1
    17    29    36    1
    18    44    45    1
    19    45    46    1
    20    15     6    1
    21    15    16   ar
    22    16    21    2
    23    16    17   ar
    24    17    23    1
    25    17    18   ar
    26    18    19   ar
    27    19    20   ar
    28    15    20   ar
    29    18    22    2
    30     6     7    1
    31     6    11    1
    32     7     9    1
    33     7     8    1
    34     8    13    1
    35     9    10    1
    36     9    12    1
    37    10     5    1
    38    10    11    1
    39    12    14    1
    40     5     4    1
    41     4     1    1
    42     1     2    1
    43     1    24    1
    44     1     3    2
    45    24    25    1
    46    28    25    1
    47    25    26    1
    48    25    27    2
@<TRIPOS>MOLECULE
UD2
 46 48 0 0 0
SMALL
GASTEIGER

@<TRIPOS>ATOM
      1 P          22.8462   72.1625   -3.2216 P.3     1  UNL1        0.2189
      2 O          23.4622   70.6757   -3.1825 O.3     1  UNL1       -0.4371
      3 O          23.5383   72.9567   -4.2603 O.2     1  UNL1       -0.5170
      4 O          21.2747   72.0832   -3.5648 O.3     1  UNL1       -0.3112
      5 C          20.2615   72.0253   -2.5591 C.3     1  UNL1        0.1811
      6 C          17.9827   71.3856   -5.2673 C.3     1  UNL1        0.2383
      7 C          17.9472   70.0920   -4.4143 C.3     1  UNL1        0.1895
      8 O          16.6655   69.4652   -4.4915 O.3     1  UNL1       -0.3779
      9 C          18.2115   70.6351   -2.9887 C.3     1  UNL1        0.1713
     10 C          18.8833   72.0013   -3.2247 C.3     1  UNL1        0.1764
     11 O          19.0233   72.1697   -4.6444 O.3     1  UNL1       -0.3308
     12 O          16.9814   70.7978   -2.2808 O.3     1  UNL1       -0.3794
     13 H          16.5937   68.6512   -3.9748 H       1  UNL1        0.2106
     14 H          16.4872   69.9765   -2.1556 H       1  UNL1        0.2105
     15 N          18.3295   71.0780   -6.6566 N.ar    1  UNL1       -0.2551
     16 C          17.3536   70.8246   -7.5467 C.ar    1  UNL1        0.3323
     17 N          17.6434   70.5388   -8.8299 N.ar    1  UNL1       -0.2743
     18 C          18.9261   70.5042   -9.2445 C.ar    1  UNL1        0.2626
     19 C          19.9634   70.7700   -8.3185 C.ar    1  UNL1        0.0795
     20 C          19.6438   71.0578   -7.0393 C.ar    1  UNL1        0.0869
     21 O          16.1925   70.8525   -7.1868 O.2     1  UNL1       -0.2464
     22 O          19.1897   70.2461  -10.4058 O.2     1  UNL1       -0.2670
     23 H          16.9276   70.3574   -9.4583 H       1  UNL1        0.1734
     24 O          23.0465   72.8646   -1.7862 O.3     1  UNL1       -0.2703
     25 P          23.0141   74.3909   -1.2742 P.3     1  UNL1        0.2208
     26 O          24.4705   75.0515   -1.4652 O.3     1  UNL1       -0.4371
     27 O          22.0201   75.1542   -2.0600 O.2     1  UNL1       -0.5170
     28 O          22.6087   74.4258    0.2837 O.3     1  UNL1       -0.2865
     29 C          23.3524   73.7466    1.2970 C.3     1  UNL1        0.2611
     30 C          22.4857   72.6481    1.9175 C.3     1  UNL1        0.1582
     31 C          21.2659   73.2890    2.5866 C.3     1  UNL1        0.1625
     32 C          21.7432   74.3078    3.6251 C.3     1  UNL1        0.1686
     33 C          22.6386   75.3426    2.9385 C.3     1  UNL1        0.1760
     34 O          20.4891   72.2773    3.2319 O.3     1  UNL1       -0.3801
     35 O          22.4836   73.6375    4.6467 O.3     1  UNL1       -0.3794
     36 O          23.7367   74.6781    2.3104 O.3     1  UNL1       -0.3263
     37 H          19.6987   72.6128    3.6768 H       1  UNL1        0.2105
     38 H          22.8182   74.2237    5.3398 H       1  UNL1        0.2105
     39 C          22.4725   70.4485    0.8690 C.2     1  UNL1        0.2231
     40 C          22.0158   69.4991   -0.2074 C.3     1  UNL1        0.0946
     41 N          22.0412   71.7253    0.8700 N.am    1  UNL1       -0.2994
     42 O          23.2293   70.0641    1.7360 O.2     1  UNL1       -0.2751
     43 H          21.4370   72.0333    0.1764 H       1  UNL1        0.1496
     44 C          23.1680   76.3300    3.9804 C.3     1  UNL1        0.1693
     45 O          24.4392   75.8842    4.4575 O.3     1  UNL1       -0.3794
     46 H          24.8355   76.4634    5.1226 H       1  UNL1        0.2105
@<TRIPOS>BOND
     1    29    30    1
     2    30    41    1
     3    30    31    1
     4    31    34    1
     5    31    32    1
     6    32    35    1
     7    32    33    1
     8    33    36    1
     9    33    44    1
    10    39    40    1
    11    39    42    2
    12    39    41   am
    13    41    43    1
    14    29    28    1
    15    34    37    1
    16    35    38    1
    17    29    36    1
    18    44    45    1
    19    45    46    1
    20    15     6    1
    21    15    16   ar
    22    16    21    2
    23    16    17   ar
    24    17    23    1
    25    17    18   ar
    26    18    19   ar
    27    19    20   ar
    28    15    20   ar
    29    18    22    2
    30     6     7    1
    31     6    11    1
    32     7     9    1
    33     7     8    1
    34     8    13    1
    35     9    10    1
    36     9    12    1
    37    10     5    1
    38    10    11    1
    39    12    14    1
    40     5     4    1
    41     4     1    1
    42     1     2    1
    43     1    24    1
    44     1     3    2
    45    24    25    1
    46    28    25    1
    47    25    26    1
    48    25    27    2
@<TRIPOS>MOLECULE
UD2
 46 48 0 0 0
SMALL
GASTEIGER

@<TRIPOS>ATOM
      1 P          22.7621   71.7374   -3.1083 P.3     1  UNL1        0.2189
      2 O          22.9293   72.1264   -1.5553 O.3     1  UNL1       -0.4371
      3 O          23.2184   70.3462   -3.3209 O.2     1  UNL1       -0.5170
      4 O          21.2128   71.8644   -3.5294 O.3     1  UNL1       -0.3112
      5 C          20.2089   72.3794   -2.6529 C.3     1  UNL1        0.1811
      6 C          17.9640   71.4046   -5.2886 C.3     1  UNL1        0.2383
      7 C          18.0818   70.1462   -4.3916 C.3     1  UNL1        0.1895
      8 O          16.8730   69.3846   -4.4201 O.3     1  UNL1       -0.3779
      9 C          18.3117   70.7652   -2.9912 C.3     1  UNL1        0.1713
     10 C          18.8297   72.1856   -3.2878 C.3     1  UNL1        0.1764
     11 O          18.9259   72.3165   -4.7150 O.3     1  UNL1       -0.3308
     12 O          17.0839   70.8220   -2.2631 O.3     1  UNL1       -0.3794
     13 H          16.8976   68.5868   -3.8746 H       1  UNL1        0.2106
     14 H          16.6824   69.9580   -2.0996 H       1  UNL1        0.2105
     15 N          18.3172   71.0857   -6.6737 N.ar    1  UNL1       -0.2551
     16 C          17.3493   70.7685   -7.5521 C.ar    1  UNL1        0.3323
     17 N          17.6450   70.4708   -8.8312 N.ar    1  UNL1       -0.2743
     18 C          18.9256   70.4884   -9.2536 C.ar    1  UNL1        0.2626
     19 C          19.9544   70.8216   -8.3399 C.ar    1  UNL1        0.0795
     20 C          19.6287   71.1198   -7.0646 C.ar    1  UNL1        0.0869
     21 O          16.1903   70.7488   -7.1852 O.2     1  UNL1       -0.2464
     22 O          19.1945   70.2196  -10.4111 O.2     1  UNL1       -0.2670
     23 H          16.9351   70.2430   -9.4511 H       1  UNL1        0.1734
     24 O          23.6463   72.7363   -4.0103 O.3     1  UNL1       -0.2703
     25 P          24.0393   74.2937   -3.8960 P.3     1  UNL1        0.2208
     26 O          23.5961   75.0587   -5.2422 O.3     1  UNL1       -0.4371
     27 O          23.3443   74.8943   -2.7365 O.2     1  UNL1       -0.5170
     28 O          25.6313   74.4323   -3.6988 O.3     1  UNL1       -0.2865
     29 C          26.3146   75.6863   -3.7399 C.3     1  UNL1        0.2611
     30 C          27.8037   75.4488   -4.0026 C.3     1  UNL1        0.1582
     31 C          28.3938   74.6353   -2.8466 C.3     1  UNL1        0.1625
     32 C          28.1481   75.3826   -1.5330 C.3     1  UNL1        0.1686
     33 C          26.6453   75.6227   -1.3655 C.3     1  UNL1        0.1760
     34 O          29.7996   74.4716   -3.0471 O.3     1  UNL1       -0.3801
     35 O          28.8323   76.6366   -1.5616 O.3     1  UNL1       -0.3794
     36 O          26.1538   76.3572   -2.4884 O.3     1  UNL1       -0.3263
     37 H          30.2392   73.9639   -2.3513 H       1  UNL1        0.2105
     38 H          28.7198   77.1652   -0.7591 H       1  UNL1        0.2105
     39 C          28.7359   75.2127   -6.2415 C.2     1  UNL1        0.2231
     40 C          28.9050   74.4519   -7.5304 C.3     1  UNL1        0.0946
     41 N          27.9674   74.7083   -5.2561 N.am    1  UNL1       -0.2994
     42 O          29.2918   76.2805   -6.0898 O.2     1  UNL1       -0.2751
     43 H          27.5220   73.8551   -5.3773 H       1  UNL1        0.1496
     44 C          26.3963   76.4214   -0.0846 C.3     1  UNL1        0.1693
     45 O          25.7979   75.5732    0.8977 O.3     1  UNL1       -0.3794
     46 H          25.6114   76.0142    1.7378 H       1  UNL1        0.2105
@<TRIPOS>BOND
     1    29    30    1
     2    30    41    1
     3    30    31    1
     4    31    34    1
     5    31    32    1
     6    32    35    1
     7    32    33    1
     8    33    36    1
     9    33    44    1
    10    39    40    1
    11    39    42    2
    12    39    41   am
    13    41    43    1
    14    29    28    1
    15    34    37    1
    16    35    38    1
    17    29    36    1
    18    44    45    1
    19    45    46    1
    20    15     6    1
    21    15    16   ar
    22    16    21    2
    23    16    17   ar
    24    17    23    1
    25    17    18   ar
    26    18    19   ar
    27    19    20   ar
    28    15    20   ar
    29    18    22    2
    30     6     7    1
    31     6    11    1
    32     7     9    1
    33     7     8    1
    34     8    13    1
    35     9    10    1
    36     9    12    1
    37    10     5    1
    38    10    11    1
    39    12    14    1
    40     5     4    1
    41     4     1    1
    42     1     2    1
    43     1    24    1
    44     1     3    2
    45    24    25    1
    46    28    25    1
    47    25    26    1
    48    25    27    2
@<TRIPOS>MOLECULE
UD2
 46 48 0 0 0
SMALL
GASTEIGER

@<TRIPOS>ATOM
      1 P          23.1989   72.9838   -3.3602 P.3     1  UNL1        0.2189
      2 O          23.4128   71.4017   -3.5665 O.3     1  UNL1       -0.4371
      3 O          23.0074   73.2730   -1.9219 O.2     1  UNL1       -0.5170
      4 O          24.4940   73.7750   -3.8991 O.3     1  UNL1       -0.3112
      5 C          24.5480   75.1992   -4.0009 C.3     1  UNL1        0.1811
      6 C          28.0992   75.5421   -4.4568 C.3     1  UNL1        0.2383
      7 C          27.4968   76.8041   -5.1251 C.3     1  UNL1        0.1895
      8 O          28.3964   77.9102   -5.0302 O.3     1  UNL1       -0.3779
      9 C          26.2279   77.0495   -4.2724 C.3     1  UNL1        0.1713
     10 C          25.9470   75.6851   -3.6142 C.3     1  UNL1        0.1764
     11 O          26.9361   74.7638   -4.1003 O.3     1  UNL1       -0.3308
     12 O          26.4799   78.0430   -3.2774 O.3     1  UNL1       -0.3794
     13 H          28.0646   78.7232   -5.4346 H       1  UNL1        0.2106
     14 H          26.7200   78.9080   -3.6360 H       1  UNL1        0.2105
     15 N          28.9407   74.8084   -5.4047 N.ar    1  UNL1       -0.2551
     16 C          29.9622   74.0614   -4.9493 C.ar    1  UNL1        0.3323
     17 N          30.7519   73.3768   -5.7977 N.ar    1  UNL1       -0.2743
     18 C          30.5270   73.4292   -7.1263 C.ar    1  UNL1        0.2626
     19 C          29.4546   74.2107   -7.6195 C.ar    1  UNL1        0.0795
     20 C          28.6763   74.8834   -6.7458 C.ar    1  UNL1        0.0869
     21 O          30.1766   74.0048   -3.7538 O.2     1  UNL1       -0.2464
     22 O          31.2408   72.8097   -7.8952 O.2     1  UNL1       -0.2670
     23 H          31.4849   72.8440   -5.4526 H       1  UNL1        0.1734
     24 O          21.8988   73.4615   -4.1817 O.3     1  UNL1       -0.2703
     25 P          21.4588   73.3730   -5.7282 P.3     1  UNL1        0.2208
     26 O          21.1413   74.8520   -6.2808 O.3     1  UNL1       -0.4371
     27 O          22.5564   72.7762   -6.5203 O.2     1  UNL1       -0.5170
     28 O          20.1416   72.4563   -5.8597 O.3     1  UNL1       -0.2865
     29 C          18.9117   72.9347   -6.4071 C.3     1  UNL1        0.2611
     30 C          17.7538   72.0787   -5.8880 C.3     1  UNL1        0.1582
     31 C          17.9442   70.6351   -6.3636 C.3     1  UNL1        0.1625
     32 C          18.0372   70.6206   -7.8918 C.3     1  UNL1        0.1686
     33 C          19.1845   71.5330   -8.3338 C.3     1  UNL1        0.1760
     34 O          16.8296   69.8440   -5.9453 O.3     1  UNL1       -0.3801
     35 O          16.8093   71.0922   -8.4496 O.3     1  UNL1       -0.3794
     36 O          18.9615   72.8526   -7.8329 O.3     1  UNL1       -0.3263
     37 H          16.8842   68.9161   -6.2123 H       1  UNL1        0.2105
     38 H          16.7972   71.1105   -9.4168 H       1  UNL1        0.2105
     39 C          16.5645   72.1756   -3.7634 C.2     1  UNL1        0.2231
     40 C          16.5471   72.2113   -2.2578 C.3     1  UNL1        0.0946
     41 N          17.7378   72.1137   -4.4234 N.am    1  UNL1       -0.2994
     42 O          15.5216   72.2027   -4.3831 O.2     1  UNL1       -0.2751
     43 H          18.5718   72.0930   -3.9284 H       1  UNL1        0.1496
     44 C          19.2461   71.5707   -9.8619 C.3     1  UNL1        0.1693
     45 O          18.3676   72.5868  -10.3498 O.3     1  UNL1       -0.3794
     46 H          18.3554   72.6676  -11.3133 H       1  UNL1        0.2105
@<TRIPOS>BOND
     1    29    30    1
     2    30    41    1
     3    30    31    1
     4    31    34    1
     5    31    32    1
     6    32    35    1
     7    32    33    1
     8    33    36    1
     9    33    44    1
    10    39    40    1
    11    39    42    2
    12    39    41   am
    13    41    43    1
    14    29    28    1
    15    34    37    1
    16    35    38    1
    17    29    36    1
    18    44    45    1
    19    45    46    1
    20    15     6    1
    21    15    16   ar
    22    16    21    2
    23    16    17   ar
    24    17    23    1
    25    17    18   ar
    26    18    19   ar
    27    19    20   ar
    28    15    20   ar
    29    18    22    2
    30     6     7    1
    31     6    11    1
    32     7     9    1
    33     7     8    1
    34     8    13    1
    35     9    10    1
    36     9    12    1
    37    10     5    1
    38    10    11    1
    39    12    14    1
    40     5     4    1
    41     4     1    1
    42     1     2    1
    43     1    24    1
    44     1     3    2
    45    24    25    1
    46    28    25    1
    47    25    26    1
    48    25    27    2
@<TRIPOS>MOLECULE
UD2
 46 48 0 0 0
SMALL
GASTEIGER

@<TRIPOS>ATOM
      1 P          21.3721   72.7967   -6.0423 P.3     1  UNL1        0.2189
      2 O          22.7711   73.1142   -6.7724 O.3     1  UNL1       -0.4371
      3 O          20.6351   74.0595   -5.8162 O.2     1  UNL1       -0.5170
      4 O          20.4912   71.8202   -6.9720 O.3     1  UNL1       -0.3112
      5 C          19.3140   71.1575   -6.5068 C.3     1  UNL1        0.1811
      6 C          16.6104   72.9237   -8.0906 C.3     1  UNL1        0.2383
      7 C          17.8637   73.3063   -8.9182 C.3     1  UNL1        0.1895
      8 O          17.5181   73.5530  -10.2826 O.3     1  UNL1       -0.3779
      9 C          18.7381   72.0348   -8.7912 C.3     1  UNL1        0.1713
     10 C          18.1934   71.3272   -7.5357 C.3     1  UNL1        0.1764
     11 O          17.1539   72.1574   -6.9937 O.3     1  UNL1       -0.3308
     12 O          18.5803   71.2037   -9.9423 O.3     1  UNL1       -0.3794
     13 H          18.2688   73.7967  -10.8409 H       1  UNL1        0.2106
     14 H          18.8527   71.6215  -10.7704 H       1  UNL1        0.2105
     15 N          15.9328   74.1242   -7.5959 N.ar    1  UNL1       -0.2551
     16 C          14.9071   74.6452   -8.2925 C.ar    1  UNL1        0.3323
     17 N          14.2661   75.7478   -7.8616 N.ar    1  UNL1       -0.2743
     18 C          14.6452   76.3490   -6.7156 C.ar    1  UNL1        0.2626
     19 C          15.7227   75.8106   -5.9717 C.ar    1  UNL1        0.0795
     20 C          16.3445   74.7019   -6.4251 C.ar    1  UNL1        0.0869
     21 O          14.5543   74.1135   -9.3275 O.2     1  UNL1       -0.2464
     22 O          14.0657   77.3467   -6.3243 O.2     1  UNL1       -0.2670
     23 H          13.5293   76.1111   -8.3767 H       1  UNL1        0.1734
     24 O          21.6548   72.0795   -4.6284 O.3     1  UNL1       -0.2703
     25 P          22.8544   72.1548   -3.5569 P.3     1  UNL1        0.2208
     26 O          23.4415   70.6765   -3.3044 O.3     1  UNL1       -0.4371
     27 O          23.9280   73.0288   -4.0784 O.2     1  UNL1       -0.5170
     28 O          22.2985   72.7559   -2.1704 O.3     1  UNL1       -0.2865
     29 C          21.1635   72.2189   -1.4887 C.3     1  UNL1        0.2611
     30 C          20.5460   73.2977   -0.5956 C.3     1  UNL1        0.1582
     31 C          21.5690   73.7183    0.4641 C.3     1  UNL1        0.1625
     32 C          22.0010   72.4834    1.2596 C.3     1  UNL1        0.1686
     33 C          22.5627   71.4358    0.2948 C.3     1  UNL1        0.1760
     34 O          20.9758   74.6724    1.3479 O.3     1  UNL1       -0.3801
     35 O          20.8737   71.9417    1.9502 O.3     1  UNL1       -0.3794
     36 O          21.5723   71.1116   -0.6830 O.3     1  UNL1       -0.3263
     37 H          21.5690   74.9837    2.0453 H       1  UNL1        0.2105
     38 H          21.0745   71.1546    2.4757 H       1  UNL1        0.2105
     39 C          18.9733   74.5105   -2.0075 C.2     1  UNL1        0.2231
     40 C          18.5970   75.7035   -2.8464 C.3     1  UNL1        0.0946
     41 N          20.1809   74.4584   -1.4116 N.am    1  UNL1       -0.2994
     42 O          18.1889   73.5953   -1.8679 O.2     1  UNL1       -0.2751
     43 H          20.8086   75.1894   -1.5238 H       1  UNL1        0.1496
     44 C          22.9414   70.1754    1.0748 C.3     1  UNL1        0.1693
     45 O          22.3903   69.0283    0.4247 O.3     1  UNL1       -0.3794
     46 H          22.5909   68.1914    0.8656 H       1  UNL1        0.2105
@<TRIPOS>BOND
     1    29    30    1
     2    30    41    1
     3    30    31    1
     4    31    34    1
     5    31    32    1
     6    32    35    1
     7    32    33    1
     8    33    36    1
     9    33    44    1
    10    39    40    1
    11    39    42    2
    12    39    41   am
    13    41    43    1
    14    29    28    1
    15    34    37    1
    16    35    38    1
    17    29    36    1
    18    44    45    1
    19    45    46    1
    20    15     6    1
    21    15    16   ar
    22    16    21    2
    23    16    17   ar
    24    17    23    1
    25    17    18   ar
    26    18    19   ar
    27    19    20   ar
    28    15    20   ar
    29    18    22    2
    30     6     7    1
    31     6    11    1
    32     7     9    1
    33     7     8    1
    34     8    13    1
    35     9    10    1
    36     9    12    1
    37    10     5    1
    38    10    11    1
    39    12    14    1
    40     5     4    1
    41     4     1    1
    42     1     2    1
    43     1    24    1
    44     1     3    2
    45    24    25    1
    46    28    25    1
    47    25    26    1
    48    25    27    2
@<TRIPOS>MOLECULE
UD2
 46 48 0 0 0
SMALL
GASTEIGER

@<TRIPOS>ATOM
      1 P          22.2301   70.9785   -2.6546 P.3     1  UNL1        0.2189
      2 O          23.5934   70.3724   -3.2589 O.3     1  UNL1       -0.4371
      3 O          21.4322   69.8905   -2.0475 O.2     1  UNL1       -0.5170
      4 O          22.5831   72.0766   -1.5306 O.3     1  UNL1       -0.3112
      5 C          22.4314   71.8326   -0.1310 C.3     1  UNL1        0.1811
      6 C          20.6348   73.7257    2.3438 C.3     1  UNL1        0.2383
      7 C          21.3711   74.7934    1.4953 C.3     1  UNL1        0.1895
      8 O          20.6252   76.0113    1.4489 O.3     1  UNL1       -0.3779
      9 C          21.4210   74.1227    0.1006 C.3     1  UNL1        0.1713
     10 C          21.2316   72.6228    0.3971 C.3     1  UNL1        0.1764
     11 O          21.1396   72.4768    1.8231 O.3     1  UNL1       -0.3308
     12 O          20.3604   74.6078   -0.7244 O.3     1  UNL1       -0.3794
     13 H          21.0453   76.7105    0.9300 H       1  UNL1        0.2106
     14 H          20.3970   75.5587   -0.8948 H       1  UNL1        0.2105
     15 N          20.9745   73.8691    3.7612 N.ar    1  UNL1       -0.2551
     16 C          21.8510   73.0195    4.3257 C.ar    1  UNL1        0.3323
     17 N          22.1816   73.1277    5.6262 N.ar    1  UNL1       -0.2743
     18 C          21.6355   74.0983    6.3867 C.ar    1  UNL1        0.2626
     19 C          20.7122   75.0002    5.8053 C.ar    1  UNL1        0.0795
     20 C          20.4023   74.8710    4.4981 C.ar    1  UNL1        0.0869
     21 O          22.3514   72.1396    3.6519 O.2     1  UNL1       -0.2464
     22 O          21.9341   74.1976    7.5638 O.2     1  UNL1       -0.2670
     23 H          22.8143   72.5060    6.0176 H       1  UNL1        0.1734
     24 O          21.3817   71.6726   -3.8343 O.3     1  UNL1       -0.2703
     25 P          21.6422   72.9275   -4.8092 P.3     1  UNL1        0.2208
     26 O          21.3985   74.2969   -3.9973 O.3     1  UNL1       -0.4371
     27 O          23.0363   72.8884   -5.3022 O.2     1  UNL1       -0.5170
     28 O          20.6285   72.8560   -6.0582 O.3     1  UNL1       -0.2865
     29 C          20.3402   71.6445   -6.7584 C.3     1  UNL1        0.2611
     30 C          20.1946   71.9401   -8.2531 C.3     1  UNL1        0.1582
     31 C          19.0128   72.8916   -8.4639 C.3     1  UNL1        0.1625
     32 C          17.7503   72.2594   -7.8716 C.3     1  UNL1        0.1686
     33 C          17.9902   71.9515   -6.3912 C.3     1  UNL1        0.1760
     34 O          18.8237   73.1151   -9.8630 O.3     1  UNL1       -0.3801
     35 O          17.4498   71.0493   -8.5691 O.3     1  UNL1       -0.3794
     36 O          19.1210   71.0872   -6.2632 O.3     1  UNL1       -0.3263
     37 H          18.0904   73.7105  -10.0702 H       1  UNL1        0.2105
     38 H          16.6602   70.5935   -8.2452 H       1  UNL1        0.2105
     39 C          21.5277   73.9097   -8.7835 C.2     1  UNL1        0.2231
     40 C          22.7896   74.5546   -9.2938 C.3     1  UNL1        0.0946
     41 N          21.4223   72.5666   -8.7498 N.am    1  UNL1       -0.2994
     42 O          20.6050   74.5994   -8.4025 O.2     1  UNL1       -0.2751
     43 H          22.1593   72.0148   -9.0553 H       1  UNL1        0.1496
     44 C          16.7544   71.2649   -5.8065 C.3     1  UNL1        0.1693
     45 O          16.1865   70.3912   -6.7846 O.3     1  UNL1       -0.3794
     46 H          15.3974   69.9212   -6.4821 H       1  UNL1        0.2105
@<TRIPOS>BOND
     1    29    30    1
     2    30    41    1
     3    30    31    1
     4    31    34    1
     5    31    32    1
     6    32    35    1
     7    32    33    1
     8    33    36    1
     9    33    44    1
    10    39    40    1
    11    39    42    2
    12    39    41   am
    13    41    43    1
    14    29    28    1
    15    34    37    1
    16    35    38    1
    17    29    36    1
    18    44    45    1
    19    45    46    1
    20    15     6    1
    21    15    16   ar
    22    16    21    2
    23    16    17   ar
    24    17    23    1
    25    17    18   ar
    26    18    19   ar
    27    19    20   ar
    28    15    20   ar
    29    18    22    2
    30     6     7    1
    31     6    11    1
    32     7     9    1
    33     7     8    1
    34     8    13    1
    35     9    10    1
    36     9    12    1
    37    10     5    1
    38    10    11    1
    39    12    14    1
    40     5     4    1
    41     4     1    1
    42     1     2    1
    43     1    24    1
    44     1     3    2
    45    24    25    1
    46    28    25    1
    47    25    26    1
    48    25    27    2
@<TRIPOS>MOLECULE
UD2
 46 48 0 0 0
SMALL
GASTEIGER

@<TRIPOS>ATOM
      1 P          20.1549   70.5593   -3.7744 P.3     1  UNL1        0.2189
      2 O          19.0457   71.0785   -2.7297 O.3     1  UNL1       -0.4371
      3 O          20.8456   69.3768   -3.2145 O.2     1  UNL1       -0.5170
      4 O          19.4398   70.1569   -5.1602 O.3     1  UNL1       -0.3112
      5 C          18.0302   70.2643   -5.3672 C.3     1  UNL1        0.1811
      6 C          18.9696   72.7830   -7.7569 C.3     1  UNL1        0.2383
      7 C          18.7770   71.4974   -8.6010 C.3     1  UNL1        0.1895
      8 O          18.3280   71.8156   -9.9197 O.3     1  UNL1       -0.3779
      9 C          17.6770   70.7496   -7.8083 C.3     1  UNL1        0.1713
     10 C          17.7483   71.3618   -6.3963 C.3     1  UNL1        0.1764
     11 O          18.8208   72.3174   -6.3980 O.3     1  UNL1       -0.3308
     12 O          16.3944   70.9849   -8.3918 O.3     1  UNL1       -0.3794
     13 H          18.1935   71.0441  -10.4865 H       1  UNL1        0.2106
     14 H          16.3125   70.6722   -9.3028 H       1  UNL1        0.2105
     15 N          20.3065   73.3428   -7.9674 N.ar    1  UNL1       -0.2551
     16 C          21.0885   72.8510   -8.9449 C.ar    1  UNL1        0.3323
     17 N          22.3215   73.3463   -9.1607 N.ar    1  UNL1       -0.2743
     18 C          22.7929   74.3514   -8.3952 C.ar    1  UNL1        0.2626
     19 C          21.9800   74.8793   -7.3634 C.ar    1  UNL1        0.0795
     20 C          20.7463   74.3665   -7.1721 C.ar    1  UNL1        0.0869
     21 O          20.6765   71.9448   -9.6430 O.2     1  UNL1       -0.2464
     22 O          23.9085   74.8008   -8.5898 O.2     1  UNL1       -0.2670
     23 H          22.8728   72.9793   -9.8690 H       1  UNL1        0.1734
     24 O          21.2274   71.7297   -4.0448 O.3     1  UNL1       -0.2703
     25 P          22.7052   72.0424   -3.4869 P.3     1  UNL1        0.2208
     26 O          23.4526   70.6579   -3.1431 O.3     1  UNL1       -0.4371
     27 O          23.4757   72.7762   -4.5145 O.2     1  UNL1       -0.5170
     28 O          22.5969   72.9396   -2.1542 O.3     1  UNL1       -0.2865
     29 C          21.4315   72.9689   -1.3281 C.3     1  UNL1        0.2611
     30 C          21.4261   74.2543   -0.4972 C.3     1  UNL1        0.1582
     31 C          22.6497   74.2615    0.4243 C.3     1  UNL1        0.1625
     32 C          22.6242   73.0050    1.2988 C.3     1  UNL1        0.1686
     33 C          22.5835   71.7674    0.3984 C.3     1  UNL1        0.1760
     34 O          22.6137   75.4233    1.2563 O.3     1  UNL1       -0.3801
     35 O          21.4649   73.0273    2.1334 O.3     1  UNL1       -0.3794
     36 O          21.4390   71.8381   -0.4543 O.3     1  UNL1       -0.3263
     37 H          23.3609   75.4931    1.8662 H       1  UNL1        0.2105
     38 H          21.3835   72.2588    2.7154 H       1  UNL1        0.2105
     39 C          22.6686   75.9418   -1.7408 C.2     1  UNL1        0.2231
     40 C          22.7237   77.1344   -2.6591 C.3     1  UNL1        0.0946
     41 N          21.4789   75.4145   -1.3904 N.am    1  UNL1       -0.2994
     42 O          23.6956   75.4552   -1.3158 O.2     1  UNL1       -0.2751
     43 H          20.6575   75.8038   -1.7291 H       1  UNL1        0.1496
     44 C          22.4976   70.5093    1.2646 C.3     1  UNL1        0.1693
     45 O          21.7088   69.5228    0.5962 O.3     1  UNL1       -0.3794
     46 H          21.6114   68.6964    1.0887 H       1  UNL1        0.2105
@<TRIPOS>BOND
     1    29    30    1
     2    30    41    1
     3    30    31    1
     4    31    34    1
     5    31    32    1
     6    32    35    1
     7    32    33    1
     8    33    36    1
     9    33    44    1
    10    39    40    1
    11    39    42    2
    12    39    41   am
    13    41    43    1
    14    29    28    1
    15    34    37    1
    16    35    38    1
    17    29    36    1
    18    44    45    1
    19    45    46    1
    20    15     6    1
    21    15    16   ar
    22    16    21    2
    23    16    17   ar
    24    17    23    1
    25    17    18   ar
    26    18    19   ar
    27    19    20   ar
    28    15    20   ar
    29    18    22    2
    30     6     7    1
    31     6    11    1
    32     7     9    1
    33     7     8    1
    34     8    13    1
    35     9    10    1
    36     9    12    1
    37    10     5    1
    38    10    11    1
    39    12    14    1
    40     5     4    1
    41     4     1    1
    42     1     2    1
    43     1    24    1
    44     1     3    2
    45    24    25    1
    46    28    25    1
    47    25    26    1
    48    25    27    2
@<TRIPOS>MOLECULE
UD2
 46 48 0 0 0
SMALL
GASTEIGER

@<TRIPOS>ATOM
      1 P          20.0850   69.9351   -2.3292 P.3     1  UNL1        0.2189
      2 O          18.6761   69.1699   -2.1846 O.3     1  UNL1       -0.4371
      3 O          20.9933   69.1401   -3.1846 O.2     1  UNL1       -0.5170
      4 O          19.8445   71.3799   -2.9989 O.3     1  UNL1       -0.3112
      5 C          19.6130   71.5594   -4.3973 C.3     1  UNL1        0.1811
      6 C          16.6780   72.0972   -6.4056 C.3     1  UNL1        0.2383
      7 C          17.0730   70.6238   -6.6795 C.3     1  UNL1        0.1895
      8 O          15.9189   69.8306   -6.9633 O.3     1  UNL1       -0.3779
      9 C          17.7149   70.2037   -5.3345 C.3     1  UNL1        0.1713
     10 C          18.1073   71.5379   -4.6716 C.3     1  UNL1        0.1764
     11 O          17.7623   72.5888   -5.5881 O.3     1  UNL1       -0.3308
     12 O          16.7675   69.5030   -4.5270 O.3     1  UNL1       -0.3794
     13 H          16.1145   68.9009   -7.1421 H       1  UNL1        0.2106
     14 H          16.4413   68.6838   -4.9233 H       1  UNL1        0.2105
     15 N          16.5939   72.8503   -7.6589 N.ar    1  UNL1       -0.2551
     16 C          17.6528   72.8859   -8.4873 C.ar    1  UNL1        0.3323
     17 N          17.6037   73.5702   -9.6456 N.ar    1  UNL1       -0.2743
     18 C          16.4826   74.2332   -9.9951 C.ar    1  UNL1        0.2626
     19 C          15.3600   74.2034   -9.1331 C.ar    1  UNL1        0.0795
     20 C          15.4359   73.5059   -7.9801 C.ar    1  UNL1        0.0869
     21 O          18.6702   72.2925   -8.1851 O.2     1  UNL1       -0.2464
     22 O          16.4367   74.8526  -11.0433 O.2     1  UNL1       -0.2670
     23 H          18.3767   73.5865  -10.2307 H       1  UNL1        0.1734
     24 O          20.7461   70.1227   -0.8728 O.3     1  UNL1       -0.2703
     25 P          22.2473   70.3830   -0.3518 P.3     1  UNL1        0.2208
     26 O          22.7535   69.1039    0.4857 O.3     1  UNL1       -0.4371
     27 O          23.1415   70.5986   -1.5104 O.2     1  UNL1       -0.5170
     28 O          22.2689   71.6865    0.5933 O.3     1  UNL1       -0.2865
     29 C          21.0841   72.2817    1.1257 C.3     1  UNL1        0.2611
     30 C          21.0334   73.7600    0.7324 C.3     1  UNL1        0.1582
     31 C          22.2347   74.4845    1.3474 C.3     1  UNL1        0.1625
     32 C          22.2140   74.2868    2.8656 C.3     1  UNL1        0.1686
     33 C          22.2193   72.7878    3.1768 C.3     1  UNL1        0.1760
     34 O          22.1559   75.8797    1.0464 O.3     1  UNL1       -0.3801
     35 O          21.0352   74.8838    3.4090 O.3     1  UNL1       -0.3794
     36 O          21.0938   72.1689    2.5503 O.3     1  UNL1       -0.3263
     37 H          22.8871   76.4010    1.4052 H       1  UNL1        0.2105
     38 H          20.9557   74.7958    4.3691 H       1  UNL1        0.2105
     39 C          20.2971   74.7743   -1.3573 C.2     1  UNL1        0.2231
     40 C          20.3484   74.8985   -2.8574 C.3     1  UNL1        0.0946
     41 N          21.0838   73.8800   -0.7269 N.am    1  UNL1       -0.2994
     42 O          19.5469   75.4796   -0.7154 O.2     1  UNL1       -0.2751
     43 H          21.6830   73.3152   -1.2398 H       1  UNL1        0.1496
     44 C          22.1384   72.5811    4.6904 C.3     1  UNL1        0.1693
     45 O          22.8803   73.6076    5.3524 O.3     1  UNL1       -0.3794
     46 H          22.8729   73.5393    6.3169 H       1  UNL1        0.2105
@<TRIPOS>BOND
     1    29    30    1
     2    30    41    1
     3    30    31    1
     4    31    34    1
     5    31    32    1
     6    32    35    1
     7    32    33    1
     8    33    36    1
     9    33    44    1
    10    39    40    1
    11    39    42    2
    12    39    41   am
    13    41    43    1
    14    29    28    1
    15    34    37    1
    16    35    38    1
    17    29    36    1
    18    44    45    1
    19    45    46    1
    20    15     6    1
    21    15    16   ar
    22    16    21    2
    23    16    17   ar
    24    17    23    1
    25    17    18   ar
    26    18    19   ar
    27    19    20   ar
    28    15    20   ar
    29    18    22    2
    30     6     7    1
    31     6    11    1
    32     7     9    1
    33     7     8    1
    34     8    13    1
    35     9    10    1
    36     9    12    1
    37    10     5    1
    38    10    11    1
    39    12    14    1
    40     5     4    1
    41     4     1    1
    42     1     2    1
    43     1    24    1
    44     1     3    2
    45    24    25    1
    46    28    25    1
    47    25    26    1
    48    25    27    2
@<TRIPOS>MOLECULE
UD2
 46 48 0 0 0
SMALL
GASTEIGER

@<TRIPOS>ATOM
      1 P          22.2752   70.3954   -0.0991 P.3     1  UNL1        0.2189
      2 O          21.3247   70.8344    1.1237 O.3     1  UNL1       -0.4371
      3 O          23.2397   69.3748    0.3667 O.2     1  UNL1       -0.5170
      4 O          21.3748   69.7815   -1.2849 O.3     1  UNL1       -0.3112
      5 C          21.3325   70.3419   -2.5984 C.3     1  UNL1        0.1811
      6 C          18.6013   70.6702   -4.9157 C.3     1  UNL1        0.2383
      7 C          18.5190   69.2035   -4.4215 C.3     1  UNL1        0.1895
      8 O          17.1667   68.7420   -4.4168 O.3     1  UNL1       -0.3779
      9 C          19.0697   69.3150   -2.9787 C.3     1  UNL1        0.1713
     10 C          19.8789   70.6260   -2.9848 C.3     1  UNL1        0.1764
     11 O          19.8225   71.1574   -4.3182 O.3     1  UNL1       -0.3308
     12 O          17.9961   69.3936   -2.0396 O.3     1  UNL1       -0.3794
     13 H          17.0634   67.8291   -4.1157 H       1  UNL1        0.2106
     14 H          17.4187   68.6184   -2.0354 H       1  UNL1        0.2105
     15 N          18.6867   70.7181   -6.3770 N.ar    1  UNL1       -0.2551
     16 C          17.5606   70.6865   -7.1117 C.ar    1  UNL1        0.3323
     17 N          17.6092   70.7290   -8.4563 N.ar    1  UNL1       -0.2743
     18 C          18.7969   70.8063   -9.0904 C.ar    1  UNL1        0.2626
     19 C          19.9901   70.8413   -8.3295 C.ar    1  UNL1        0.0795
     20 C          19.9115   70.8016   -6.9827 C.ar    1  UNL1        0.0869
     21 O          16.4827   70.6171   -6.5534 O.2     1  UNL1       -0.2464
     22 O          18.8422   70.8452  -10.3074 O.2     1  UNL1       -0.2670
     23 H          16.7878   70.7040   -8.9709 H       1  UNL1        0.1734
     24 O          23.0760   71.6814   -0.6451 O.3     1  UNL1       -0.2703
     25 P          22.8275   73.2703   -0.5642 P.3     1  UNL1        0.2208
     26 O          21.4195   73.6289   -1.2589 O.3     1  UNL1       -0.4371
     27 O          22.7998   73.6941    0.8529 O.2     1  UNL1       -0.5170
     28 O          24.0162   74.0391   -1.3315 O.3     1  UNL1       -0.2865
     29 C          24.0319   75.4550   -1.5222 C.3     1  UNL1        0.2611
     30 C          24.1908   75.7685   -3.0119 C.3     1  UNL1        0.1582
     31 C          25.5345   75.2185   -3.5001 C.3     1  UNL1        0.1625
     32 C          26.6590   75.8248   -2.6562 C.3     1  UNL1        0.1686
     33 C          26.4049   75.5090   -1.1798 C.3     1  UNL1        0.1760
     34 O          25.7241   75.5708   -4.8724 O.3     1  UNL1       -0.3801
     35 O          26.6871   77.2408   -2.8442 O.3     1  UNL1       -0.3794
     36 O          25.1265   76.0206   -0.7981 O.3     1  UNL1       -0.3263
     37 H          26.5567   75.2532   -5.2481 H       1  UNL1        0.2105
     38 H          27.3767   77.6920   -2.3375 H       1  UNL1        0.2105
     39 C          23.2641   73.9040   -4.2779 C.2     1  UNL1        0.2231
     40 C          22.1451   73.2559   -5.0502 C.3     1  UNL1        0.0946
     41 N          23.1019   75.1389   -3.7632 N.am    1  UNL1       -0.2994
     42 O          24.3125   73.3143   -4.1187 O.2     1  UNL1       -0.2751
     43 H          22.2643   75.6111   -3.8911 H       1  UNL1        0.1496
     44 C          27.4922   76.1621   -0.3243 C.3     1  UNL1        0.1693
     45 O          28.6834   76.3119   -1.0995 O.3     1  UNL1       -0.3794
     46 H          29.4168   76.7203   -0.6196 H       1  UNL1        0.2105
@<TRIPOS>BOND
     1    29    30    1
     2    30    41    1
     3    30    31    1
     4    31    34    1
     5    31    32    1
     6    32    35    1
     7    32    33    1
     8    33    36    1
     9    33    44    1
    10    39    40    1
    11    39    42    2
    12    39    41   am
    13    41    43    1
    14    29    28    1
    15    34    37    1
    16    35    38    1
    17    29    36    1
    18    44    45    1
    19    45    46    1
    20    15     6    1
    21    15    16   ar
    22    16    21    2
    23    16    17   ar
    24    17    23    1
    25    17    18   ar
    26    18    19   ar
    27    19    20   ar
    28    15    20   ar
    29    18    22    2
    30     6     7    1
    31     6    11    1
    32     7     9    1
    33     7     8    1
    34     8    13    1
    35     9    10    1
    36     9    12    1
    37    10     5    1
    38    10    11    1
    39    12    14    1
    40     5     4    1
    41     4     1    1
    42     1     2    1
    43     1    24    1
    44     1     3    2
    45    24    25    1
    46    28    25    1
    47    25    26    1
    48    25    27    2
@<TRIPOS>MOLECULE
UD2
 46 48 0 0 0
SMALL
GASTEIGER

@<TRIPOS>ATOM
      1 P          22.9186   72.1091   -3.2782 P.3     1  UNL1        0.2189
      2 O          23.5008   72.7453   -4.6375 O.3     1  UNL1       -0.4371
      3 O          23.5145   70.7720   -3.0638 O.2     1  UNL1       -0.5170
      4 O          23.2876   73.0665   -2.0368 O.3     1  UNL1       -0.3112
      5 C          22.3371   73.4487   -1.0408 C.3     1  UNL1        0.1811
      6 C          22.7372   73.2054    2.5253 C.3     1  UNL1        0.2383
      7 C          21.2618   72.8049    2.2705 C.3     1  UNL1        0.1895
      8 O          20.8131   71.8628    3.2466 O.3     1  UNL1       -0.3779
      9 C          21.3393   72.1528    0.8682 C.3     1  UNL1        0.1713
     10 C          22.6425   72.7109    0.2650 C.3     1  UNL1        0.1764
     11 O          23.2009   73.6239    1.2232 O.3     1  UNL1       -0.3308
     12 O          21.4094   70.7306    0.9826 O.3     1  UNL1       -0.3794
     13 H          19.8954   71.5820    3.1299 H       1  UNL1        0.2106
     14 H          20.6397   70.3312    1.4098 H       1  UNL1        0.2105
     15 N          22.8134   74.3127    3.4809 N.ar    1  UNL1       -0.2551
     16 C          22.2769   75.5046    3.1640 C.ar    1  UNL1        0.3323
     17 N          22.3325   76.5397    4.0228 N.ar    1  UNL1       -0.2743
     18 C          22.9299   76.3945    5.2231 C.ar    1  UNL1        0.2626
     19 C          23.4979   75.1451    5.5702 C.ar    1  UNL1        0.0795
     20 C          23.4239   74.1233    4.6915 C.ar    1  UNL1        0.0869
     21 O          21.7350   75.6499    2.0853 O.2     1  UNL1       -0.2464
     22 O          22.9806   77.3305    6.0014 O.2     1  UNL1       -0.2670
     23 H          21.9417   77.3926    3.7779 H       1  UNL1        0.1734
     24 O          21.3182   71.9718   -3.3919 O.3     1  UNL1       -0.2703
     25 P          20.3106   70.7239   -3.5357 P.3     1  UNL1        0.2208
     26 O          21.1027   69.3567   -3.2241 O.3     1  UNL1       -0.4371
     27 O          19.1954   70.8769   -2.5760 O.2     1  UNL1       -0.5170
     28 O          19.7261   70.6763   -5.0353 O.3     1  UNL1       -0.2865
     29 C          19.2140   71.8279   -5.7082 C.3     1  UNL1        0.2611
     30 C          17.6920   71.7164   -5.8261 C.3     1  UNL1        0.1582
     31 C          17.3428   70.4890   -6.6734 C.3     1  UNL1        0.1625
     32 C          18.0231   70.6146   -8.0393 C.3     1  UNL1        0.1686
     33 C          19.5327   70.7685   -7.8360 C.3     1  UNL1        0.1760
     34 O          15.9261   70.4186   -6.8501 O.3     1  UNL1       -0.3801
     35 O          17.5135   71.7607   -8.7232 O.3     1  UNL1       -0.3794
     36 O          19.7872   71.9099   -7.0147 O.3     1  UNL1       -0.3263
     37 H          15.6330   69.6631   -7.3779 H       1  UNL1        0.2105
     38 H          17.9018   71.9027   -9.5979 H       1  UNL1        0.2105
     39 C          15.9867   72.2483   -4.1687 C.2     1  UNL1        0.2231
     40 C          15.3846   72.1003   -2.7961 C.3     1  UNL1        0.0946
     41 N          17.1071   71.5720   -4.4906 N.am    1  UNL1       -0.2994
     42 O          15.4632   72.9769   -4.9856 O.2     1  UNL1       -0.2751
     43 H          17.5265   70.9902   -3.8375 H       1  UNL1        0.1496
     44 C          20.2136   70.9544   -9.1933 C.3     1  UNL1        0.1693
     45 O          19.3697   70.4388  -10.2250 O.3     1  UNL1       -0.3794
     46 H          19.7387   70.5233  -11.1147 H       1  UNL1        0.2105
@<TRIPOS>BOND
     1    29    30    1
     2    30    41    1
     3    30    31    1
     4    31    34    1
     5    31    32    1
     6    32    35    1
     7    32    33    1
     8    33    36    1
     9    33    44    1
    10    39    40    1
    11    39    42    2
    12    39    41   am
    13    41    43    1
    14    29    28    1
    15    34    37    1
    16    35    38    1
    17    29    36    1
    18    44    45    1
    19    45    46    1
    20    15     6    1
    21    15    16   ar
    22    16    21    2
    23    16    17   ar
    24    17    23    1
    25    17    18   ar
    26    18    19   ar
    27    19    20   ar
    28    15    20   ar
    29    18    22    2
    30     6     7    1
    31     6    11    1
    32     7     9    1
    33     7     8    1
    34     8    13    1
    35     9    10    1
    36     9    12    1
    37    10     5    1
    38    10    11    1
    39    12    14    1
    40     5     4    1
    41     4     1    1
    42     1     2    1
    43     1    24    1
    44     1     3    2
    45    24    25    1
    46    28    25    1
    47    25    26    1
    48    25    27    2
@<TRIPOS>MOLECULE
UD2
 46 48 0 0 0
SMALL
GASTEIGER

@<TRIPOS>ATOM
      1 P          20.5940   70.2689   -2.5306 P.3     1  UNL1        0.2189
      2 O          20.0512   69.1315   -3.5322 O.3     1  UNL1       -0.4371
      3 O          19.4476   70.9816   -1.9249 O.2     1  UNL1       -0.5170
      4 O          21.4752   69.5848   -1.3691 O.3     1  UNL1       -0.3112
      5 C          22.2276   70.3398   -0.4177 C.3     1  UNL1        0.1811
      6 C          21.2638   73.2688    1.4339 C.3     1  UNL1        0.2383
      7 C          22.6652   73.6100    0.8667 C.3     1  UNL1        0.1895
      8 O          22.7879   75.0121    0.6196 O.3     1  UNL1       -0.3779
      9 C          22.6822   72.8118   -0.4600 C.3     1  UNL1        0.1713
     10 C          21.6043   71.7291   -0.2619 C.3     1  UNL1        0.1764
     11 O          21.0815   71.8840    1.0671 O.3     1  UNL1       -0.3308
     12 O          22.3431   73.6610   -1.5575 O.3     1  UNL1       -0.3794
     13 H          23.6477   75.2753    0.2645 H       1  UNL1        0.2106
     14 H          22.9567   74.3958   -1.6916 H       1  UNL1        0.2105
     15 N          21.2450   73.4240    2.8902 N.ar    1  UNL1       -0.2551
     16 C          21.8944   72.5356    3.6634 C.ar    1  UNL1        0.3323
     17 N          21.8938   72.6536    5.0044 N.ar    1  UNL1       -0.2743
     18 C          21.2385   73.6731    5.5958 C.ar    1  UNL1        0.2626
     19 C          20.5516   74.6162    4.7939 C.ar    1  UNL1        0.0795
     20 C          20.5725   74.4758    3.4518 C.ar    1  UNL1        0.0869
     21 O          22.4896   71.6114    3.1438 O.2     1  UNL1       -0.2464
     22 O          21.2376   73.7813    6.8094 O.2     1  UNL1       -0.2670
     23 H          22.3661   72.0036    5.5472 H       1  UNL1        0.1734
     24 O          21.5050   71.3148   -3.3489 O.3     1  UNL1       -0.2703
     25 P          21.2180   72.3422   -4.5551 P.3     1  UNL1        0.2208
     26 O          20.6896   73.7400   -3.9545 O.3     1  UNL1       -0.4371
     27 O          22.4664   72.5728   -5.3145 O.2     1  UNL1       -0.5170
     28 O          20.1005   71.7216   -5.5342 O.3     1  UNL1       -0.2865
     29 C          19.0412   72.4976   -6.0972 C.3     1  UNL1        0.2611
     30 C          17.6984   71.8336   -5.7832 C.3     1  UNL1        0.1582
     31 C          17.6583   70.4486   -6.4364 C.3     1  UNL1        0.1625
     32 C          17.8935   70.5990   -7.9419 C.3     1  UNL1        0.1686
     33 C          19.2292   71.3107   -8.1727 C.3     1  UNL1        0.1760
     34 O          16.3796   69.8511   -6.2101 O.3     1  UNL1       -0.3801
     35 O          16.8358   71.3692   -8.5159 O.3     1  UNL1       -0.3794
     36 O          19.2116   72.5786   -7.5138 O.3     1  UNL1       -0.3263
     37 H          16.2838   68.9698   -6.5965 H       1  UNL1        0.2105
     38 H          16.9206   71.5053   -9.4700 H       1  UNL1        0.2105
     39 C          16.4846   72.2401   -3.7098 C.2     1  UNL1        0.2231
     40 C          16.3295   72.0982   -2.2183 C.3     1  UNL1        0.0946
     41 N          17.5484   71.6953   -4.3324 N.am    1  UNL1       -0.2994
     42 O          15.6516   72.8454   -4.3515 O.2     1  UNL1       -0.2751
     43 H          18.2151   71.2121   -3.8195 H       1  UNL1        0.1496
     44 C          19.4436   71.5183   -9.6732 C.3     1  UNL1        0.1693
     45 O          18.7462   70.5041  -10.3995 O.3     1  UNL1       -0.3794
     46 H          18.8379   70.5736  -11.3596 H       1  UNL1        0.2105
@<TRIPOS>BOND
     1    29    30    1
     2    30    41    1
     3    30    31    1
     4    31    34    1
     5    31    32    1
     6    32    35    1
     7    32    33    1
     8    33    36    1
     9    33    44    1
    10    39    40    1
    11    39    42    2
    12    39    41   am
    13    41    43    1
    14    29    28    1
    15    34    37    1
    16    35    38    1
    17    29    36    1
    18    44    45    1
    19    45    46    1
    20    15     6    1
    21    15    16   ar
    22    16    21    2
    23    16    17   ar
    24    17    23    1
    25    17    18   ar
    26    18    19   ar
    27    19    20   ar
    28    15    20   ar
    29    18    22    2
    30     6     7    1
    31     6    11    1
    32     7     9    1
    33     7     8    1
    34     8    13    1
    35     9    10    1
    36     9    12    1
    37    10     5    1
    38    10    11    1
    39    12    14    1
    40     5     4    1
    41     4     1    1
    42     1     2    1
    43     1    24    1
    44     1     3    2
    45    24    25    1
    46    28    25    1
    47    25    26    1
    48    25    27    2
@<TRIPOS>MOLECULE
UD2
 46 48 0 0 0
SMALL
GASTEIGER

@<TRIPOS>ATOM
      1 P          22.3165   70.3716   -0.2660 P.3     1  UNL1        0.2189
      2 O          21.2779   70.9281    0.8308 O.3     1  UNL1       -0.4371
      3 O          23.2767   69.4530    0.3843 O.2     1  UNL1       -0.5170
      4 O          21.5112   69.5810   -1.4149 O.3     1  UNL1       -0.3112
      5 C          21.2316   70.1459   -2.6971 C.3     1  UNL1        0.1811
      6 C          18.2608   71.2547   -4.3946 C.3     1  UNL1        0.2383
      7 C          18.2329   69.7109   -4.5285 C.3     1  UNL1        0.1895
      8 O          16.8891   69.2270   -4.5729 O.3     1  UNL1       -0.3779
      9 C          18.9400   69.2587   -3.2274 C.3     1  UNL1        0.1713
     10 C          19.7443   70.4965   -2.7862 C.3     1  UNL1        0.1764
     11 O          19.5408   71.5149   -3.7787 O.3     1  UNL1       -0.3308
     12 O          17.9771   68.9068   -2.2326 O.3     1  UNL1       -0.3794
     13 H          16.8193   68.2664   -4.6569 H       1  UNL1        0.2106
     14 H          17.4032   68.1702   -2.4828 H       1  UNL1        0.2105
     15 N          18.1837   71.8882   -5.7128 N.ar    1  UNL1       -0.2551
     16 C          19.3106   72.1085   -6.4132 C.ar    1  UNL1        0.3323
     17 N          19.2695   72.6891   -7.6271 N.ar    1  UNL1       -0.2743
     18 C          18.0886   73.0592   -8.1628 C.ar    1  UNL1        0.2626
     19 C          16.8945   72.8325   -7.4370 C.ar    1  UNL1        0.0795
     20 C          16.9649   72.2447   -6.2241 C.ar    1  UNL1        0.0869
     21 O          20.3824   71.7797   -5.9426 O.2     1  UNL1       -0.2464
     22 O          18.0501   73.5845   -9.2615 O.2     1  UNL1       -0.2670
     23 H          20.0916   72.8416   -8.1181 H       1  UNL1        0.1734
     24 O          23.1152   71.6056   -0.9239 O.3     1  UNL1       -0.2703
     25 P          22.8344   73.1874   -1.0342 P.3     1  UNL1        0.2208
     26 O          23.6452   73.7896   -2.2886 O.3     1  UNL1       -0.4371
     27 O          21.3861   73.4193   -1.2264 O.2     1  UNL1       -0.5170
     28 O          23.3200   73.9141    0.3181 O.3     1  UNL1       -0.2865
     29 C          22.4614   74.7346    1.1124 C.3     1  UNL1        0.2611
     30 C          23.2761   75.8658    1.7442 C.3     1  UNL1        0.1582
     31 C          24.3344   75.2636    2.6736 C.3     1  UNL1        0.1625
     32 C          23.6398   74.3921    3.7236 C.3     1  UNL1        0.1686
     33 C          22.8109   73.3174    3.0152 C.3     1  UNL1        0.1760
     34 O          25.0518   76.3149    3.3244 O.3     1  UNL1       -0.3801
     35 O          22.7825   75.2046    4.5275 O.3     1  UNL1       -0.3794
     36 O          21.8673   73.9434    2.1436 O.3     1  UNL1       -0.3263
     37 H          25.7401   76.0052    3.9290 H       1  UNL1        0.2105
     38 H          22.3083   74.7166    5.2152 H       1  UNL1        0.2105
     39 C          25.1867   76.3278    0.3041 C.2     1  UNL1        0.2231
     40 C          25.8642   77.1252   -0.7793 C.3     1  UNL1        0.0946
     41 N          23.9345   76.6422    0.6905 N.am    1  UNL1       -0.2994
     42 O          25.7682   75.4016    0.8295 O.2     1  UNL1       -0.2751
     43 H          23.4696   77.3832    0.2714 H       1  UNL1        0.1496
     44 C          22.0662   72.4794    4.0562 C.3     1  UNL1        0.1693
     45 O          20.8507   71.9851    3.4900 O.3     1  UNL1       -0.3794
     46 H          20.3257   71.4439    4.0953 H       1  UNL1        0.2105
@<TRIPOS>BOND
     1    29    30    1
     2    30    41    1
     3    30    31    1
     4    31    34    1
     5    31    32    1
     6    32    35    1
     7    32    33    1
     8    33    36    1
     9    33    44    1
    10    39    40    1
    11    39    42    2
    12    39    41   am
    13    41    43    1
    14    29    28    1
    15    34    37    1
    16    35    38    1
    17    29    36    1
    18    44    45    1
    19    45    46    1
    20    15     6    1
    21    15    16   ar
    22    16    21    2
    23    16    17   ar
    24    17    23    1
    25    17    18   ar
    26    18    19   ar
    27    19    20   ar
    28    15    20   ar
    29    18    22    2
    30     6     7    1
    31     6    11    1
    32     7     9    1
    33     7     8    1
    34     8    13    1
    35     9    10    1
    36     9    12    1
    37    10     5    1
    38    10    11    1
    39    12    14    1
    40     5     4    1
    41     4     1    1
    42     1     2    1
    43     1    24    1
    44     1     3    2
    45    24    25    1
    46    28    25    1
    47    25    26    1
    48    25    27    2
@<TRIPOS>MOLECULE
UD2
 46 48 0 0 0
SMALL
GASTEIGER

@<TRIPOS>ATOM
      1 P          19.5300   70.5384   -3.0077 P.3     1  UNL1        0.2189
      2 O          20.1146   69.8072   -4.3173 O.3     1  UNL1       -0.4371
      3 O          19.1943   69.5243   -1.9842 O.2     1  UNL1       -0.5170
      4 O          20.6365   71.5495   -2.4189 O.3     1  UNL1       -0.3112
      5 C          20.5760   72.0822   -1.0945 C.3     1  UNL1        0.1811
      6 C          22.8852   72.2393    1.6587 C.3     1  UNL1        0.2383
      7 C          22.5145   70.7386    1.5461 C.3     1  UNL1        0.1895
      8 O          23.6026   69.9117    1.9630 O.3     1  UNL1       -0.3779
      9 C          22.2513   70.5815    0.0284 C.3     1  UNL1        0.1713
     10 C          21.9650   72.0162   -0.4546 C.3     1  UNL1        0.1764
     11 O          22.0137   72.8731    0.6973 O.3     1  UNL1       -0.3308
     12 O          23.4063   70.0540   -0.6263 O.3     1  UNL1       -0.3794
     13 H          23.4190   68.9639    1.9113 H       1  UNL1        0.2106
     14 H          23.6672   69.1757   -0.3182 H       1  UNL1        0.2105
     15 N          22.6139   72.7377    3.0088 N.ar    1  UNL1       -0.2551
     16 C          21.3835   72.6019    3.5346 C.ar    1  UNL1        0.3323
     17 N          21.1059   73.0509    4.7730 N.ar    1  UNL1       -0.2743
     18 C          22.0655   73.6461    5.5101 C.ar    1  UNL1        0.2626
     19 C          23.3654   73.7948    4.9695 C.ar    1  UNL1        0.0795
     20 C          23.6167   73.3316    3.7270 C.ar    1  UNL1        0.0869
     21 O          20.5085   72.0670    2.8814 O.2     1  UNL1       -0.2464
     22 O          21.8156   74.0526    6.6312 O.2     1  UNL1       -0.2670
     23 H          20.2131   72.9459    5.1364 H       1  UNL1        0.1734
     24 O          18.2044   71.3642   -3.4005 O.3     1  UNL1       -0.2703
     25 P          17.0008   71.1171   -4.4412 P.3     1  UNL1        0.2208
     26 O          16.7621   69.5343   -4.6189 O.3     1  UNL1       -0.4371
     27 O          15.7654   71.7468   -3.9258 O.2     1  UNL1       -0.5170
     28 O          17.3807   71.7661   -5.8650 O.3     1  UNL1       -0.2865
     29 C          18.7081   72.1682   -6.2078 C.3     1  UNL1        0.2611
     30 C          18.6730   73.5619   -6.8396 C.3     1  UNL1        0.1582
     31 C          17.8551   73.5060   -8.1336 C.3     1  UNL1        0.1625
     32 C          18.4693   72.4603   -9.0683 C.3     1  UNL1        0.1686
     33 C          18.5123   71.1087   -8.3504 C.3     1  UNL1        0.1760
     34 O          17.8783   74.7865   -8.7685 O.3     1  UNL1       -0.3801
     35 O          19.7958   72.8562   -9.4219 O.3     1  UNL1       -0.3794
     36 O          19.2615   71.2374   -7.1404 O.3     1  UNL1       -0.3263
     37 H          17.3785   74.8241   -9.5955 H       1  UNL1        0.2105
     38 H          20.2469   72.2378  -10.0136 H       1  UNL1        0.2105
     39 C          16.7248   74.7374   -5.9675 C.2     1  UNL1        0.2231
     40 C          16.0847   75.7077   -5.0096 C.3     1  UNL1        0.0946
     41 N          18.0511   74.5060   -5.9077 N.am    1  UNL1       -0.2994
     42 O          16.0464   74.1636   -6.7937 O.2     1  UNL1       -0.2751
     43 H          18.5940   74.9653   -5.2479 H       1  UNL1        0.1496
     44 C          19.1793   70.0716   -9.2558 C.3     1  UNL1        0.1693
     45 O          18.9603   70.4214  -10.6240 O.3     1  UNL1       -0.3794
     46 H          19.3564   69.8061  -11.2562 H       1  UNL1        0.2105
@<TRIPOS>BOND
     1    29    30    1
     2    30    41    1
     3    30    31    1
     4    31    34    1
     5    31    32    1
     6    32    35    1
     7    32    33    1
     8    33    36    1
     9    33    44    1
    10    39    40    1
    11    39    42    2
    12    39    41   am
    13    41    43    1
    14    29    28    1
    15    34    37    1
    16    35    38    1
    17    29    36    1
    18    44    45    1
    19    45    46    1
    20    15     6    1
    21    15    16   ar
    22    16    21    2
    23    16    17   ar
    24    17    23    1
    25    17    18   ar
    26    18    19   ar
    27    19    20   ar
    28    15    20   ar
    29    18    22    2
    30     6     7    1
    31     6    11    1
    32     7     9    1
    33     7     8    1
    34     8    13    1
    35     9    10    1
    36     9    12    1
    37    10     5    1
    38    10    11    1
    39    12    14    1
    40     5     4    1
    41     4     1    1
    42     1     2    1
    43     1    24    1
    44     1     3    2
    45    24    25    1
    46    28    25    1
    47    25    26    1
    48    25    27    2
@<TRIPOS>MOLECULE
UD2
 46 48 0 0 0
SMALL
GASTEIGER

@<TRIPOS>ATOM
      1 P          21.9229   73.4009   -7.0677 P.3     1  UNL1        0.2189
      2 O          21.0421   74.6822   -6.6507 O.3     1  UNL1       -0.4371
      3 O          21.0355   72.3441   -7.6012 O.2     1  UNL1       -0.5170
      4 O          22.9889   73.8273   -8.1971 O.3     1  UNL1       -0.3112
      5 C          22.7103   74.8081   -9.1980 C.3     1  UNL1        0.1811
      6 C          25.1065   75.4572  -11.8006 C.3     1  UNL1        0.2383
      7 C          24.2238   76.7304  -11.7572 C.3     1  UNL1        0.1895
      8 O          24.9761   77.8856  -12.1332 O.3     1  UNL1       -0.3779
      9 C          23.8205   76.7958  -10.2637 C.3     1  UNL1        0.1713
     10 C          24.0266   75.3564   -9.7547 C.3     1  UNL1        0.1764
     11 O          24.4517   74.5633  -10.8743 O.3     1  UNL1       -0.3308
     12 O          24.6685   77.7029   -9.5573 O.3     1  UNL1       -0.3794
     13 H          24.4671   78.7075  -12.1221 H       1  UNL1        0.2106
     14 H          24.6231   78.6143   -9.8762 H       1  UNL1        0.2105
     15 N          25.1200   74.8846  -13.1486 N.ar    1  UNL1       -0.2551
     16 C          26.1369   75.1667  -13.9823 C.ar    1  UNL1        0.3323
     17 N          26.1751   74.6545  -15.2267 N.ar    1  UNL1       -0.2743
     18 C          25.1874   73.8437  -15.6575 C.ar    1  UNL1        0.2626
     19 C          24.1113   73.5375  -14.7900 C.ar    1  UNL1        0.0795
     20 C          24.1010   74.0615  -13.5463 C.ar    1  UNL1        0.0869
     21 O          27.0344   75.8962  -13.6072 O.2     1  UNL1       -0.2464
     22 O          25.2209   73.3792  -16.7834 O.2     1  UNL1       -0.2670
     23 H          26.9151   74.8691  -15.8153 H       1  UNL1        0.1734
     24 O          22.7053   72.8435   -5.7753 O.3     1  UNL1       -0.2703
     25 P          22.2790   72.5518   -4.2502 P.3     1  UNL1        0.2208
     26 O          23.4914   71.8172   -3.4857 O.3     1  UNL1       -0.4371
     27 O          21.9703   73.8292   -3.5710 O.2     1  UNL1       -0.5170
     28 O          20.9776   71.6038   -4.2287 O.3     1  UNL1       -0.2865
     29 C          19.6794   72.0721   -3.8591 C.3     1  UNL1        0.2611
     30 C          19.1063   71.1751   -2.7593 C.3     1  UNL1        0.1582
     31 C          18.9499   69.7517   -3.3031 C.3     1  UNL1        0.1625
     32 C          18.0576   69.7872   -4.5469 C.3     1  UNL1        0.1686
     33 C          18.6713   70.7379   -5.5781 C.3     1  UNL1        0.1760
     34 O          18.3469   68.9236   -2.3062 O.3     1  UNL1       -0.3801
     35 O          16.7544   70.2490   -4.1869 O.3     1  UNL1       -0.3794
     36 O          18.8181   72.0359   -4.9989 O.3     1  UNL1       -0.3263
     37 H          18.2181   68.0060   -2.5830 H       1  UNL1        0.2105
     38 H          16.1348   70.2975   -4.9283 H       1  UNL1        0.2105
     39 C          20.9759   70.2199   -1.5223 C.2     1  UNL1        0.2231
     40 C          21.9138   70.2076   -0.3439 C.3     1  UNL1        0.0946
     41 N          20.0182   71.1637   -1.6126 N.am    1  UNL1       -0.2994
     42 O          21.0821   69.3797   -2.3912 O.2     1  UNL1       -0.2751
     43 H          19.9322   71.8351   -0.9176 H       1  UNL1        0.1496
     44 C          17.7550   70.8249   -6.8001 C.3     1  UNL1        0.1693
     45 O          18.5409   70.7562   -7.9917 O.3     1  UNL1       -0.3794
     46 H          18.0243   70.8056   -8.8076 H       1  UNL1        0.2105
@<TRIPOS>BOND
     1    29    30    1
     2    30    41    1
     3    30    31    1
     4    31    34    1
     5    31    32    1
     6    32    35    1
     7    32    33    1
     8    33    36    1
     9    33    44    1
    10    39    40    1
    11    39    42    2
    12    39    41   am
    13    41    43    1
    14    29    28    1
    15    34    37    1
    16    35    38    1
    17    29    36    1
    18    44    45    1
    19    45    46    1
    20    15     6    1
    21    15    16   ar
    22    16    21    2
    23    16    17   ar
    24    17    23    1
    25    17    18   ar
    26    18    19   ar
    27    19    20   ar
    28    15    20   ar
    29    18    22    2
    30     6     7    1
    31     6    11    1
    32     7     9    1
    33     7     8    1
    34     8    13    1
    35     9    10    1
    36     9    12    1
    37    10     5    1
    38    10    11    1
    39    12    14    1
    40     5     4    1
    41     4     1    1
    42     1     2    1
    43     1    24    1
    44     1     3    2
    45    24    25    1
    46    28    25    1
    47    25    26    1
    48    25    27    2
@<TRIPOS>MOLECULE
UD2
 46 48 0 0 0
SMALL
GASTEIGER

@<TRIPOS>ATOM
      1 P          22.1252   71.5809   -3.1133 P.3     1  UNL1        0.2189
      2 O          23.3090   72.0514   -4.0975 O.3     1  UNL1       -0.4371
      3 O          21.4478   72.7702   -2.5516 O.2     1  UNL1       -0.5170
      4 O          21.0614   70.6967   -3.9380 O.3     1  UNL1       -0.3112
      5 C          20.0148   69.9543   -3.3096 C.3     1  UNL1        0.1811
      6 C          17.8413   72.1331   -5.1711 C.3     1  UNL1        0.2383
      7 C          17.7738   70.7797   -5.9233 C.3     1  UNL1        0.1895
      8 O          16.4962   70.6008   -6.5377 O.3     1  UNL1       -0.3779
      9 C          17.9833   69.7598   -4.7773 C.3     1  UNL1        0.1713
     10 C          18.6631   70.5791   -3.6637 C.3     1  UNL1        0.1764
     11 O          18.8571   71.9096   -4.1691 O.3     1  UNL1       -0.3308
     12 O          16.7270   69.2496   -4.3277 O.3     1  UNL1       -0.3794
     13 H          16.4050   69.7686   -7.0211 H       1  UNL1        0.2106
     14 H          16.2286   68.7750   -5.0065 H       1  UNL1        0.2105
     15 N          18.2410   73.2093   -6.0805 N.ar    1  UNL1       -0.2551
     16 C          19.0829   72.9457   -7.0956 C.ar    1  UNL1        0.3323
     17 N          19.4673   73.9154   -7.9466 N.ar    1  UNL1       -0.2743
     18 C          19.0085   75.1742   -7.7930 C.ar    1  UNL1        0.2626
     19 C          18.1210   75.4656   -6.7293 C.ar    1  UNL1        0.0795
     20 C          17.7490   74.4731   -5.8938 C.ar    1  UNL1        0.0869
     21 O          19.5044   71.8152   -7.2463 O.2     1  UNL1       -0.2464
     22 O          19.3553   76.0527   -8.5627 O.2     1  UNL1       -0.2670
     23 H          20.0759   73.7084   -8.6725 H       1  UNL1        0.1734
     24 O          22.7416   70.6983   -1.9156 O.3     1  UNL1       -0.2703
     25 P          22.5830   70.7221   -0.3133 P.3     1  UNL1        0.2208
     26 O          21.1105   70.2073    0.0874 O.3     1  UNL1       -0.4371
     27 O          23.5979   69.8352    0.2964 O.2     1  UNL1       -0.5170
     28 O          22.7910   72.2256    0.2242 O.3     1  UNL1       -0.2865
     29 C          21.7207   73.0279    0.7264 C.3     1  UNL1        0.2611
     30 C          22.1049   74.5068    0.6369 C.3     1  UNL1        0.1582
     31 C          23.3307   74.7613    1.5195 C.3     1  UNL1        0.1625
     32 C          23.0121   74.3301    2.9537 C.3     1  UNL1        0.1686
     33 C          22.5929   72.8576    2.9539 C.3     1  UNL1        0.1760
     34 O          23.6520   76.1540    1.4998 O.3     1  UNL1       -0.3801
     35 O          21.9461   75.1307    3.4676 O.3     1  UNL1       -0.3794
     36 O          21.4677   72.6842    2.0902 O.3     1  UNL1       -0.3263
     37 H          24.4206   76.3875    2.0382 H       1  UNL1        0.2105
     38 H          21.6905   74.9112    4.3745 H       1  UNL1        0.2105
     39 C          23.7001   74.8086   -1.1802 C.2     1  UNL1        0.2231
     40 C          24.0277   75.1575   -2.6084 C.3     1  UNL1        0.0946
     41 N          22.4227   74.8466   -0.7524 N.am    1  UNL1       -0.2994
     42 O          24.5864   74.4930   -0.4141 O.2     1  UNL1       -0.2751
     43 H          21.7139   75.0997   -1.3643 H       1  UNL1        0.1496
     44 C          22.2155   72.4351    4.3749 C.3     1  UNL1        0.1693
     45 O          20.8773   72.8505    4.6566 O.3     1  UNL1       -0.3794
     46 H          20.5702   72.6154    5.5428 H       1  UNL1        0.2105
@<TRIPOS>BOND
     1    29    30    1
     2    30    41    1
     3    30    31    1
     4    31    34    1
     5    31    32    1
     6    32    35    1
     7    32    33    1
     8    33    36    1
     9    33    44    1
    10    39    40    1
    11    39    42    2
    12    39    41   am
    13    41    43    1
    14    29    28    1
    15    34    37    1
    16    35    38    1
    17    29    36    1
    18    44    45    1
    19    45    46    1
    20    15     6    1
    21    15    16   ar
    22    16    21    2
    23    16    17   ar
    24    17    23    1
    25    17    18   ar
    26    18    19   ar
    27    19    20   ar
    28    15    20   ar
    29    18    22    2
    30     6     7    1
    31     6    11    1
    32     7     9    1
    33     7     8    1
    34     8    13    1
    35     9    10    1
    36     9    12    1
    37    10     5    1
    38    10    11    1
    39    12    14    1
    40     5     4    1
    41     4     1    1
    42     1     2    1
    43     1    24    1
    44     1     3    2
    45    24    25    1
    46    28    25    1
    47    25    26    1
    48    25    27    2
@<TRIPOS>MOLECULE
UD2
 46 48 0 0 0
SMALL
GASTEIGER

@<TRIPOS>ATOM
      1 P          22.3833   70.4942   -0.2549 P.3     1  UNL1        0.2189
      2 O          21.2911   70.7941    0.8890 O.3     1  UNL1       -0.4371
      3 O          23.4513   69.6312    0.2960 O.2     1  UNL1       -0.5170
      4 O          21.6732   69.7462   -1.4917 O.3     1  UNL1       -0.3112
      5 C          21.3303   70.4111   -2.7089 C.3     1  UNL1        0.1811
      6 C          18.2304   71.2505   -4.3284 C.3     1  UNL1        0.2383
      7 C          18.3257   69.7080   -4.4448 C.3     1  UNL1        0.1895
      8 O          17.0256   69.1151   -4.4438 O.3     1  UNL1       -0.3779
      9 C          19.1051   69.3324   -3.1607 C.3     1  UNL1        0.1713
     10 C          19.8172   70.6376   -2.7572 C.3     1  UNL1        0.1764
     11 O          19.5020   71.6228   -3.7540 O.3     1  UNL1       -0.3308
     12 O          18.2036   68.9159   -2.1338 O.3     1  UNL1       -0.3794
     13 H          17.0326   68.1510   -4.5153 H       1  UNL1        0.2106
     14 H          17.6852   68.1315   -2.3588 H       1  UNL1        0.2105
     15 N          18.0633   71.8583   -5.6504 N.ar    1  UNL1       -0.2551
     16 C          19.1468   72.2381   -6.3510 C.ar    1  UNL1        0.3323
     17 N          19.0229   72.7994   -7.5683 N.ar    1  UNL1       -0.2743
     18 C          17.8013   72.9884   -8.1074 C.ar    1  UNL1        0.2626
     19 C          16.6523   72.5924   -7.3815 C.ar    1  UNL1        0.0795
     20 C          16.8062   72.0283   -6.1650 C.ar    1  UNL1        0.0869
     21 O          20.2544   72.0735   -5.8774 O.2     1  UNL1       -0.2464
     22 O          17.6878   73.4959   -9.2092 O.2     1  UNL1       -0.2670
     23 H          19.8144   73.0686   -8.0594 H       1  UNL1        0.1734
     24 O          23.0230   71.8818   -0.7635 O.3     1  UNL1       -0.2703
     25 P          22.5957   73.4279   -0.6223 P.3     1  UNL1        0.2208
     26 O          23.8412   74.3671   -1.0226 O.3     1  UNL1       -0.4371
     27 O          21.4567   73.7095   -1.5234 O.2     1  UNL1       -0.5170
     28 O          22.1637   73.7284    0.8994 O.3     1  UNL1       -0.2865
     29 C          21.9928   75.0504    1.4135 C.3     1  UNL1        0.2611
     30 C          22.0822   75.0204    2.9412 C.3     1  UNL1        0.1582
     31 C          20.9447   74.1559    3.4937 C.3     1  UNL1        0.1625
     32 C          19.6072   74.7155    3.0014 C.3     1  UNL1        0.1686
     33 C          19.6133   74.7572    1.4709 C.3     1  UNL1        0.1760
     34 O          20.9764   74.1818    4.9225 O.3     1  UNL1       -0.3801
     35 O          19.4239   76.0360    3.5150 O.3     1  UNL1       -0.3794
     36 O          20.7130   75.5516    1.0221 O.3     1  UNL1       -0.3263
     37 H          20.2825   73.6535    5.3405 H       1  UNL1        0.2105
     38 H          18.5949   76.4534    3.2419 H       1  UNL1        0.2105
     39 C          24.0661   75.0076    4.3560 C.2     1  UNL1        0.2231
     40 C          25.3904   74.4227    4.7718 C.3     1  UNL1        0.0946
     41 N          23.3704   74.4510    3.3449 N.am    1  UNL1       -0.2994
     42 O          23.6250   75.9805    4.9314 O.2     1  UNL1       -0.2751
     43 H          23.7231   73.6738    2.8839 H       1  UNL1        0.1496
     44 C          18.3035   75.3708    0.9726 C.3     1  UNL1        0.1693
     45 O          18.4798   75.8537   -0.3609 O.3     1  UNL1       -0.3794
     46 H          17.6878   76.2569   -0.7418 H       1  UNL1        0.2105
@<TRIPOS>BOND
     1    29    30    1
     2    30    41    1
     3    30    31    1
     4    31    34    1
     5    31    32    1
     6    32    35    1
     7    32    33    1
     8    33    36    1
     9    33    44    1
    10    39    40    1
    11    39    42    2
    12    39    41   am
    13    41    43    1
    14    29    28    1
    15    34    37    1
    16    35    38    1
    17    29    36    1
    18    44    45    1
    19    45    46    1
    20    15     6    1
    21    15    16   ar
    22    16    21    2
    23    16    17   ar
    24    17    23    1
    25    17    18   ar
    26    18    19   ar
    27    19    20   ar
    28    15    20   ar
    29    18    22    2
    30     6     7    1
    31     6    11    1
    32     7     9    1
    33     7     8    1
    34     8    13    1
    35     9    10    1
    36     9    12    1
    37    10     5    1
    38    10    11    1
    39    12    14    1
    40     5     4    1
    41     4     1    1
    42     1     2    1
    43     1    24    1
    44     1     3    2
    45    24    25    1
    46    28    25    1
    47    25    26    1
    48    25    27    2
