@<TRIPOS>MOLECULE
UD2
 46 48 0 0 0
SMALL
GASTEIGER

@<TRIPOS>ATOM
      1 P          19.7692   71.3142   -2.1508 P.3     1  UNL1        0.2189
      2 O          20.2541   70.4425   -3.4142 O.3     1  UNL1       -0.4371
      3 O          20.2149   72.7151   -2.3170 O.2     1  UNL1       -0.5170
      4 O          18.1622   71.2701   -2.0537 O.3     1  UNL1       -0.3112
      5 C          17.3148   72.1598   -2.7830 C.3     1  UNL1        0.1811
      6 C          16.6064   70.4440   -5.8636 C.3     1  UNL1        0.2383
      7 C          17.1398   69.3395   -4.9162 C.3     1  UNL1        0.1895
      8 O          16.5480   68.0754   -5.2221 O.3     1  UNL1       -0.3779
      9 C          16.6730   69.8469   -3.5298 C.3     1  UNL1        0.1713
     10 C          16.4343   71.3542   -3.7413 C.3     1  UNL1        0.1764
     11 O          16.7871   71.6566   -5.1005 O.3     1  UNL1       -0.3308
     12 O          15.4608   69.1975   -3.1431 O.3     1  UNL1       -0.3794
     13 H          16.8506   67.3520   -4.6566 H       1  UNL1        0.2106
     14 H          15.5391   68.2382   -3.0529 H       1  UNL1        0.2105
     15 N          17.3932   70.4887   -7.0982 N.ar    1  UNL1       -0.2551
     16 C          16.7667   70.5811   -8.2847 C.ar    1  UNL1        0.3323
     17 N          17.4645   70.6239   -9.4351 N.ar    1  UNL1       -0.2743
     18 C          18.8120   70.5762   -9.4137 C.ar    1  UNL1        0.2626
     19 C          19.4846   70.4799   -8.1717 C.ar    1  UNL1        0.0795
     20 C          18.7599   70.4431   -7.0337 C.ar    1  UNL1        0.0869
     21 O          15.5521   70.6253   -8.3190 O.2     1  UNL1       -0.2464
     22 O          19.4448   70.6153  -10.4542 O.2     1  UNL1       -0.2670
     23 H          16.9970   70.6894  -10.2820 H       1  UNL1        0.1734
     24 O          20.4045   70.7049   -0.8023 O.3     1  UNL1       -0.2703
     25 P          21.5054   71.2276    0.2501 P.3     1  UNL1        0.2208
     26 O          21.9515   70.0119    1.2076 O.3     1  UNL1       -0.4371
     27 O          22.6857   71.7366   -0.4821 O.2     1  UNL1       -0.5170
     28 O          20.8755   72.4107    1.1424 O.3     1  UNL1       -0.2865
     29 C          21.5802   73.6157    1.4470 C.3     1  UNL1        0.2611
     30 C          22.3627   73.4348    2.7499 C.3     1  UNL1        0.1582
     31 C          21.3789   73.1696    3.8936 C.3     1  UNL1        0.1625
     32 C          20.3801   74.3274    3.9724 C.3     1  UNL1        0.1686
     33 C          19.6737   74.4738    2.6219 C.3     1  UNL1        0.1760
     34 O          22.0955   73.0724    5.1266 O.3     1  UNL1       -0.3801
     35 O          21.0744   75.5370    4.2824 O.3     1  UNL1       -0.3794
     36 O          20.6471   74.6875    1.5978 O.3     1  UNL1       -0.3263
     37 H          21.5336   72.9039    5.8954 H       1  UNL1        0.2105
     38 H          20.5021   76.3143    4.3473 H       1  UNL1        0.2105
     39 C          24.5903   72.5113    2.3998 C.2     1  UNL1        0.2231
     40 C          25.5315   71.3433    2.2638 C.3     1  UNL1        0.0946
     41 N          23.2776   72.2982    2.6175 N.am    1  UNL1       -0.2994
     42 O          25.0138   73.6451    2.3133 O.2     1  UNL1       -0.2751
     43 H          22.9384   71.3919    2.6857 H       1  UNL1        0.1496
     44 C          18.7171   75.6666    2.6737 C.3     1  UNL1        0.1693
     45 O          17.4473   75.2385    3.1705 O.3     1  UNL1       -0.3794
     46 H          16.7894   75.9446    3.2304 H       1  UNL1        0.2105
@<TRIPOS>BOND
     1    29    30    1
     2    30    41    1
     3    30    31    1
     4    31    34    1
     5    31    32    1
     6    32    35    1
     7    32    33    1
     8    33    36    1
     9    33    44    1
    10    39    40    1
    11    39    42    2
    12    39    41   am
    13    41    43    1
    14    29    28    1
    15    34    37    1
    16    35    38    1
    17    29    36    1
    18    44    45    1
    19    45    46    1
    20    15     6    1
    21    15    16   ar
    22    16    21    2
    23    16    17   ar
    24    17    23    1
    25    17    18   ar
    26    18    19   ar
    27    19    20   ar
    28    15    20   ar
    29    18    22    2
    30     6     7    1
    31     6    11    1
    32     7     9    1
    33     7     8    1
    34     8    13    1
    35     9    10    1
    36     9    12    1
    37    10     5    1
    38    10    11    1
    39    12    14    1
    40     5     4    1
    41     4     1    1
    42     1     2    1
    43     1    24    1
    44     1     3    2
    45    24    25    1
    46    28    25    1
    47    25    26    1
    48    25    27    2
@<TRIPOS>MOLECULE
UD2
 46 48 0 0 0
SMALL
GASTEIGER

@<TRIPOS>ATOM
      1 P          21.1623   71.6890   -2.4613 P.3     1  UNL1        0.2189
      2 O          22.1955   70.5821   -3.0077 O.3     1  UNL1       -0.4371
      3 O          21.6599   73.0400   -2.8022 O.2     1  UNL1       -0.5170
      4 O          19.7210   71.4602   -3.1425 O.3     1  UNL1       -0.3112
      5 C          18.6185   70.8724   -2.4495 C.3     1  UNL1        0.1811
      6 C          16.9835   70.5427   -5.6362 C.3     1  UNL1        0.2383
      7 C          16.9978   69.1060   -5.0550 C.3     1  UNL1        0.1895
      8 O          15.8628   68.3629   -5.5038 O.3     1  UNL1       -0.3779
      9 C          16.9176   69.3706   -3.5315 C.3     1  UNL1        0.1713
     10 C          17.4009   70.8251   -3.3760 C.3     1  UNL1        0.1764
     11 O          17.7629   71.2978   -4.6833 O.3     1  UNL1       -0.3308
     12 O          15.5712   69.2386   -3.0725 O.3     1  UNL1       -0.3794
     13 H          15.8273   67.4572   -5.1674 H       1  UNL1        0.2106
     14 H          15.1958   68.3571   -3.2006 H       1  UNL1        0.2105
     15 N          17.6147   70.5710   -6.9574 N.ar    1  UNL1       -0.2551
     16 C          16.8551   70.4580   -8.0615 C.ar    1  UNL1        0.3323
     17 N          17.4084   70.4805   -9.2885 N.ar    1  UNL1       -0.2743
     18 C          18.7424   70.6197   -9.4290 C.ar    1  UNL1        0.2626
     19 C          19.5540   70.7407   -8.2754 C.ar    1  UNL1        0.0795
     20 C          18.9719   70.7191   -7.0579 C.ar    1  UNL1        0.0869
     21 O          15.6509   70.3321   -7.9499 O.2     1  UNL1       -0.2464
     22 O          19.2444   70.6406  -10.5390 O.2     1  UNL1       -0.2670
     23 H          16.8462   70.3966  -10.0740 H       1  UNL1        0.1734
     24 O          21.0269   71.5542   -0.8623 O.3     1  UNL1       -0.2703
     25 P          22.0612   71.2062    0.3217 P.3     1  UNL1        0.2208
     26 O          21.6059   69.8426    1.0478 O.3     1  UNL1       -0.4371
     27 O          23.4179   71.0347   -0.2425 O.2     1  UNL1       -0.5170
     28 O          22.0732   72.4074    1.3939 O.3     1  UNL1       -0.2865
     29 C          22.3031   72.2032    2.7892 C.3     1  UNL1        0.2611
     30 C          21.9584   73.4819    3.5566 C.3     1  UNL1        0.1582
     31 C          22.8844   74.6106    3.0930 C.3     1  UNL1        0.1625
     32 C          24.3391   74.1818    3.3032 C.3     1  UNL1        0.1686
     33 C          24.5921   72.8759    2.5453 C.3     1  UNL1        0.1760
     34 O          22.6189   75.7896    3.8564 O.3     1  UNL1       -0.3801
     35 O          24.5811   73.9804    4.6968 O.3     1  UNL1       -0.3794
     36 O          23.6781   71.8770    3.0023 O.3     1  UNL1       -0.3263
     37 H          23.1702   76.5465    3.6149 H       1  UNL1        0.2105
     38 H          25.4854   73.7058    4.9040 H       1  UNL1        0.2105
     39 C          19.7796   74.2829    4.2976 C.2     1  UNL1        0.2231
     40 C          18.3477   74.6629    4.0260 C.3     1  UNL1        0.0946
     41 N          20.5656   73.8511    3.2916 N.am    1  UNL1       -0.2994
     42 O          20.2263   74.3653    5.4227 O.2     1  UNL1       -0.2751
     43 H          20.2086   73.7842    2.3921 H       1  UNL1        0.1496
     44 C          26.0268   72.4091    2.7988 C.3     1  UNL1        0.1693
     45 O          26.1617   71.0434    2.3997 O.3     1  UNL1       -0.3794
     46 H          27.0479   70.6801    2.5324 H       1  UNL1        0.2105
@<TRIPOS>BOND
     1    29    30    1
     2    30    41    1
     3    30    31    1
     4    31    34    1
     5    31    32    1
     6    32    35    1
     7    32    33    1
     8    33    36    1
     9    33    44    1
    10    39    40    1
    11    39    42    2
    12    39    41   am
    13    41    43    1
    14    29    28    1
    15    34    37    1
    16    35    38    1
    17    29    36    1
    18    44    45    1
    19    45    46    1
    20    15     6    1
    21    15    16   ar
    22    16    21    2
    23    16    17   ar
    24    17    23    1
    25    17    18   ar
    26    18    19   ar
    27    19    20   ar
    28    15    20   ar
    29    18    22    2
    30     6     7    1
    31     6    11    1
    32     7     9    1
    33     7     8    1
    34     8    13    1
    35     9    10    1
    36     9    12    1
    37    10     5    1
    38    10    11    1
    39    12    14    1
    40     5     4    1
    41     4     1    1
    42     1     2    1
    43     1    24    1
    44     1     3    2
    45    24    25    1
    46    28    25    1
    47    25    26    1
    48    25    27    2
@<TRIPOS>MOLECULE
UD2
 46 48 0 0 0
SMALL
GASTEIGER

@<TRIPOS>ATOM
      1 P          20.8772   71.6332   -2.6456 P.3     1  UNL1        0.2189
      2 O          21.5180   70.3184   -3.3181 O.3     1  UNL1       -0.4371
      3 O          21.6850   72.8180   -3.0100 O.2     1  UNL1       -0.5170
      4 O          19.3695   71.8273   -3.1775 O.3     1  UNL1       -0.3112
      5 C          18.2239   71.3972   -2.4400 C.3     1  UNL1        0.1811
      6 C          16.8757   70.5137   -5.6553 C.3     1  UNL1        0.2383
      7 C          17.1279   69.1558   -4.9520 C.3     1  UNL1        0.1895
      8 O          16.1839   68.1743   -5.3846 O.3     1  UNL1       -0.3779
      9 C          16.9075   69.5153   -3.4622 C.3     1  UNL1        0.1713
     10 C          17.0954   71.0436   -3.4118 C.3     1  UNL1        0.1764
     11 O          17.4387   71.4764   -4.7378 O.3     1  UNL1       -0.3308
     12 O          15.5857   69.1596   -3.0534 O.3     1  UNL1       -0.3794
     13 H          16.3010   67.3073   -4.9731 H       1  UNL1        0.2106
     14 H          15.3931   68.2148   -3.1213 H       1  UNL1        0.2105
     15 N          17.5682   70.5632   -6.9449 N.ar    1  UNL1       -0.2551
     16 C          16.8571   70.5165   -8.0854 C.ar    1  UNL1        0.3323
     17 N          17.4672   70.5600   -9.2846 N.ar    1  UNL1       -0.2743
     18 C          18.8104   70.6537   -9.3597 C.ar    1  UNL1        0.2626
     19 C          19.5714   70.7048   -8.1670 C.ar    1  UNL1        0.0795
     20 C          18.9331   70.6636   -6.9786 C.ar    1  UNL1        0.0869
     21 O          15.6452   70.4323   -8.0329 O.2     1  UNL1       -0.2464
     22 O          19.3639   70.6936  -10.4444 O.2     1  UNL1       -0.2670
     23 H          16.9395   70.5241  -10.0972 H       1  UNL1        0.1734
     24 O          20.8631   71.4647   -1.0442 O.3     1  UNL1       -0.2703
     25 P          22.0106   71.2841    0.0710 P.3     1  UNL1        0.2208
     26 O          21.6451   70.0344    1.0189 O.3     1  UNL1       -0.4371
     27 O          23.3092   71.0358   -0.5927 O.2     1  UNL1       -0.5170
     28 O          22.1094   72.6224    0.9609 O.3     1  UNL1       -0.2865
     29 C          21.8667   72.6408    2.3687 C.3     1  UNL1        0.2611
     30 C          20.9745   73.8343    2.7182 C.3     1  UNL1        0.1582
     31 C          21.7055   75.1306    2.3552 C.3     1  UNL1        0.1625
     32 C          23.0460   75.1722    3.0938 C.3     1  UNL1        0.1686
     33 C          23.8586   73.9267    2.7298 C.3     1  UNL1        0.1760
     34 O          20.9101   76.2523    2.7457 O.3     1  UNL1       -0.3801
     35 O          22.8142   75.1966    4.5034 O.3     1  UNL1       -0.3794
     36 O          23.1096   72.7566    3.0645 O.3     1  UNL1       -0.3263
     37 H          21.3125   77.1084    2.5447 H       1  UNL1        0.2105
     38 H          23.6220   75.2227    5.0352 H       1  UNL1        0.2105
     39 C          19.6272   74.3349    0.7504 C.2     1  UNL1        0.2231
     40 C          18.3418   74.2471   -0.0296 C.3     1  UNL1        0.0946
     41 N          19.7237   73.7487    1.9601 N.am    1  UNL1       -0.2994
     42 O          20.5768   74.9336    0.2899 O.2     1  UNL1       -0.2751
     43 H          18.9645   73.2708    2.3291 H       1  UNL1        0.1496
     44 C          25.1747   73.9307    3.5097 C.3     1  UNL1        0.1693
     45 O          26.2026   73.3369    2.7141 O.3     1  UNL1       -0.3794
     46 H          27.0669   73.3055    3.1466 H       1  UNL1        0.2105
@<TRIPOS>BOND
     1    29    30    1
     2    30    41    1
     3    30    31    1
     4    31    34    1
     5    31    32    1
     6    32    35    1
     7    32    33    1
     8    33    36    1
     9    33    44    1
    10    39    40    1
    11    39    42    2
    12    39    41   am
    13    41    43    1
    14    29    28    1
    15    34    37    1
    16    35    38    1
    17    29    36    1
    18    44    45    1
    19    45    46    1
    20    15     6    1
    21    15    16   ar
    22    16    21    2
    23    16    17   ar
    24    17    23    1
    25    17    18   ar
    26    18    19   ar
    27    19    20   ar
    28    15    20   ar
    29    18    22    2
    30     6     7    1
    31     6    11    1
    32     7     9    1
    33     7     8    1
    34     8    13    1
    35     9    10    1
    36     9    12    1
    37    10     5    1
    38    10    11    1
    39    12    14    1
    40     5     4    1
    41     4     1    1
    42     1     2    1
    43     1    24    1
    44     1     3    2
    45    24    25    1
    46    28    25    1
    47    25    26    1
    48    25    27    2
@<TRIPOS>MOLECULE
UD2
 46 48 0 0 0
SMALL
GASTEIGER

@<TRIPOS>ATOM
      1 P          20.7626   70.9590   -3.3773 P.3     1  UNL1        0.2189
      2 O          21.1239   70.3336   -1.9387 O.3     1  UNL1       -0.4371
      3 O          20.5359   69.8660   -4.3483 O.2     1  UNL1       -0.5170
      4 O          19.4285   71.8527   -3.2540 O.3     1  UNL1       -0.3112
      5 C          18.2847   71.4420   -2.5028 C.3     1  UNL1        0.1811
      6 C          16.8477   70.6526   -5.7041 C.3     1  UNL1        0.2383
      7 C          17.0572   69.2772   -5.0211 C.3     1  UNL1        0.1895
      8 O          16.0673   68.3394   -5.4485 O.3     1  UNL1       -0.3779
      9 C          16.8768   69.6268   -3.5236 C.3     1  UNL1        0.1713
     10 C          17.1266   71.1456   -3.4588 C.3     1  UNL1        0.1764
     11 O          17.4644   71.5807   -4.7854 O.3     1  UNL1       -0.3308
     12 O          15.5489   69.3191   -3.0959 O.3     1  UNL1       -0.3794
     13 H          16.1566   67.4635   -5.0492 H       1  UNL1        0.2106
     14 H          15.3174   68.3836   -3.1714 H       1  UNL1        0.2105
     15 N          17.5196   70.6903   -7.0049 N.ar    1  UNL1       -0.2551
     16 C          16.8144   70.4578   -8.1262 C.ar    1  UNL1        0.3323
     17 N          17.4061   70.4858   -9.3351 N.ar    1  UNL1       -0.2743
     18 C          18.7241   70.7513   -9.4397 C.ar    1  UNL1        0.2626
     19 C          19.4784   70.9989   -8.2676 C.ar    1  UNL1        0.0795
     20 C          18.8585   70.9686   -7.0691 C.ar    1  UNL1        0.0869
     21 O          15.6252   70.2173   -8.0470 O.2     1  UNL1       -0.2464
     22 O          19.2607   70.7774  -10.5332 O.2     1  UNL1       -0.2670
     23 H          16.8831   70.3147  -10.1335 H       1  UNL1        0.1734
     24 O          21.9813   71.8823   -3.8829 O.3     1  UNL1       -0.2703
     25 P          23.4608   72.1853   -3.3239 P.3     1  UNL1        0.2208
     26 O          24.1727   70.8004   -2.9127 O.3     1  UNL1       -0.4371
     27 O          24.2576   72.8560   -4.3744 O.2     1  UNL1       -0.5170
     28 O          23.3609   73.1420   -2.0325 O.3     1  UNL1       -0.2865
     29 C          22.4394   72.9145   -0.9647 C.3     1  UNL1        0.2611
     30 C          22.2500   74.2080   -0.1686 C.3     1  UNL1        0.1582
     31 C          23.5897   74.6161    0.4521 C.3     1  UNL1        0.1625
     32 C          24.1069   73.4684    1.3238 C.3     1  UNL1        0.1686
     33 C          24.2247   72.2031    0.4699 C.3     1  UNL1        0.1760
     34 O          23.4068   75.7827    1.2576 O.3     1  UNL1       -0.3801
     35 O          23.1947   73.2366    2.3987 O.3     1  UNL1       -0.3794
     36 O          22.9518   71.8965   -0.1025 O.3     1  UNL1       -0.3263
     37 H          24.2165   76.0981    1.6819 H       1  UNL1        0.2105
     38 H          23.4596   72.5203    2.9927 H       1  UNL1        0.2105
     39 C          22.6703   76.0801   -1.6707 C.2     1  UNL1        0.2231
     40 C          22.1895   77.1712   -2.5910 C.3     1  UNL1        0.0946
     41 N          21.7815   75.2692   -1.0635 N.am    1  UNL1       -0.2994
     42 O          23.8584   75.9308   -1.4754 O.2     1  UNL1       -0.2751
     43 H          20.8314   75.3889   -1.2186 H       1  UNL1        0.1496
     44 C          24.6840   71.0371    1.3472 C.3     1  UNL1        0.1693
     45 O          25.6921   71.4900    2.2534 O.3     1  UNL1       -0.3794
     46 H          26.0306   70.8016    2.8420 H       1  UNL1        0.2105
@<TRIPOS>BOND
     1    29    30    1
     2    30    41    1
     3    30    31    1
     4    31    34    1
     5    31    32    1
     6    32    35    1
     7    32    33    1
     8    33    36    1
     9    33    44    1
    10    39    40    1
    11    39    42    2
    12    39    41   am
    13    41    43    1
    14    29    28    1
    15    34    37    1
    16    35    38    1
    17    29    36    1
    18    44    45    1
    19    45    46    1
    20    15     6    1
    21    15    16   ar
    22    16    21    2
    23    16    17   ar
    24    17    23    1
    25    17    18   ar
    26    18    19   ar
    27    19    20   ar
    28    15    20   ar
    29    18    22    2
    30     6     7    1
    31     6    11    1
    32     7     9    1
    33     7     8    1
    34     8    13    1
    35     9    10    1
    36     9    12    1
    37    10     5    1
    38    10    11    1
    39    12    14    1
    40     5     4    1
    41     4     1    1
    42     1     2    1
    43     1    24    1
    44     1     3    2
    45    24    25    1
    46    28    25    1
    47    25    26    1
    48    25    27    2
@<TRIPOS>MOLECULE
UD2
 46 48 0 0 0
SMALL
GASTEIGER

@<TRIPOS>ATOM
      1 P          20.1469   73.9378   -0.0672 P.3     1  UNL1        0.2189
      2 O          18.5648   73.6609    0.0414 O.3     1  UNL1       -0.4371
      3 O          20.3884   75.3948   -0.1550 O.2     1  UNL1       -0.5170
      4 O          20.8853   73.3489    1.2373 O.3     1  UNL1       -0.3112
      5 C          22.1408   73.8418    1.7085 C.3     1  UNL1        0.1811
      6 C          25.3515   72.2577    2.0531 C.3     1  UNL1        0.2383
      7 C          24.3679   71.3076    2.7824 C.3     1  UNL1        0.1895
      8 O          24.8080   69.9511    2.6926 O.3     1  UNL1       -0.3779
      9 C          23.0591   71.5178    1.9822 C.3     1  UNL1        0.1713
     10 C          23.2556   72.8800    1.2900 C.3     1  UNL1        0.1764
     11 O          24.5288   73.3944    1.7116 O.3     1  UNL1       -0.3308
     12 O          22.8958   70.4821    1.0119 O.3     1  UNL1       -0.3794
     13 H          24.2257   69.3184    3.1344 H       1  UNL1        0.2106
     14 H          22.8264   69.5952    1.3901 H       1  UNL1        0.2105
     15 N          26.4402   72.6583    2.9471 N.ar    1  UNL1       -0.2551
     16 C          27.5451   71.8965    3.0347 C.ar    1  UNL1        0.3323
     17 N          28.5611   72.2403    3.8482 N.ar    1  UNL1       -0.2743
     18 C          28.4854   73.3632    4.5912 C.ar    1  UNL1        0.2626
     19 C          27.3286   74.1750    4.5081 C.ar    1  UNL1        0.0795
     20 C          26.3271   73.8084    3.6810 C.ar    1  UNL1        0.0869
     21 O          27.6271   70.8814    2.3704 O.2     1  UNL1       -0.2464
     22 O          29.4044   73.6758    5.3276 O.2     1  UNL1       -0.2670
     23 H          29.3500   71.6791    3.9002 H       1  UNL1        0.1734
     24 O          20.7291   73.2166   -1.3841 O.3     1  UNL1       -0.2703
     25 P          20.9916   71.6818   -1.7945 P.3     1  UNL1        0.2208
     26 O          22.5770   71.4010   -1.8341 O.3     1  UNL1       -0.4371
     27 O          20.3580   70.7894   -0.7992 O.2     1  UNL1       -0.5170
     28 O          20.3596   71.3994   -3.2483 O.3     1  UNL1       -0.2865
     29 C          19.5835   72.3647   -3.9605 C.3     1  UNL1        0.2611
     30 C          18.3583   71.6831   -4.5745 C.3     1  UNL1        0.1582
     31 C          18.8235   70.6261   -5.5809 C.3     1  UNL1        0.1625
     32 C          19.7055   71.2964   -6.6379 C.3     1  UNL1        0.1686
     33 C          20.8791   71.9930   -5.9441 C.3     1  UNL1        0.1760
     34 O          17.6855   70.0356   -6.2130 O.3     1  UNL1       -0.3801
     35 O          18.9367   72.2600   -7.3602 O.3     1  UNL1       -0.3794
     36 O          20.3776   72.9408   -4.9997 O.3     1  UNL1       -0.3263
     37 H          17.9066   69.3552   -6.8637 H       1  UNL1        0.2105
     38 H          19.4337   72.7253   -8.0476 H       1  UNL1        0.2105
     39 C          17.7968   69.7490   -3.2028 C.2     1  UNL1        0.2231
     40 C          16.9915   69.0877   -2.1153 C.3     1  UNL1        0.0946
     41 N          17.5744   71.0405   -3.5166 N.am    1  UNL1       -0.2994
     42 O          18.6465   69.1188   -3.7971 O.2     1  UNL1       -0.2751
     43 H          16.8945   71.5444   -3.0424 H       1  UNL1        0.1496
     44 C          21.7324   72.7155   -6.9883 C.3     1  UNL1        0.1693
     45 O          23.0894   72.2806   -6.8792 O.3     1  UNL1       -0.3794
     46 H          23.6890   72.6984   -7.5124 H       1  UNL1        0.2105
@<TRIPOS>BOND
     1    29    30    1
     2    30    41    1
     3    30    31    1
     4    31    34    1
     5    31    32    1
     6    32    35    1
     7    32    33    1
     8    33    36    1
     9    33    44    1
    10    39    40    1
    11    39    42    2
    12    39    41   am
    13    41    43    1
    14    29    28    1
    15    34    37    1
    16    35    38    1
    17    29    36    1
    18    44    45    1
    19    45    46    1
    20    15     6    1
    21    15    16   ar
    22    16    21    2
    23    16    17   ar
    24    17    23    1
    25    17    18   ar
    26    18    19   ar
    27    19    20   ar
    28    15    20   ar
    29    18    22    2
    30     6     7    1
    31     6    11    1
    32     7     9    1
    33     7     8    1
    34     8    13    1
    35     9    10    1
    36     9    12    1
    37    10     5    1
    38    10    11    1
    39    12    14    1
    40     5     4    1
    41     4     1    1
    42     1     2    1
    43     1    24    1
    44     1     3    2
    45    24    25    1
    46    28    25    1
    47    25    26    1
    48    25    27    2
@<TRIPOS>MOLECULE
UD2
 46 48 0 0 0
SMALL
GASTEIGER

@<TRIPOS>ATOM
      1 P          23.5538   72.3365   -3.2116 P.3     1  UNL1        0.2189
      2 O          24.4558   73.0003   -4.3679 O.3     1  UNL1       -0.4371
      3 O          23.9903   70.9413   -2.9843 O.2     1  UNL1       -0.5170
      4 O          23.7215   73.1799   -1.8499 O.3     1  UNL1       -0.3112
      5 C          22.8108   73.0754   -0.7539 C.3     1  UNL1        0.1811
      6 C          24.7073   71.8148    2.0302 C.3     1  UNL1        0.2383
      7 C          23.3287   72.1854    2.6336 C.3     1  UNL1        0.1895
      8 O          23.0078   71.3325    3.7343 O.3     1  UNL1       -0.3779
      9 C          22.3733   71.9322    1.4418 C.3     1  UNL1        0.1713
     10 C          23.2913   71.9839    0.2057 C.3     1  UNL1        0.1764
     11 O          24.6163   72.2892    0.6692 O.3     1  UNL1       -0.3308
     12 O          21.7613   70.6465    1.5574 O.3     1  UNL1       -0.3794
     13 H          22.1547   71.5254    4.1460 H       1  UNL1        0.2106
     14 H          21.2183   70.5383    2.3499 H       1  UNL1        0.2105
     15 N          25.7850   72.5019    2.7454 N.ar    1  UNL1       -0.2551
     16 C          26.9855   71.9087    2.8711 C.ar    1  UNL1        0.3323
     17 N          27.9939   72.5168    3.5234 N.ar    1  UNL1       -0.2743
     18 C          27.8136   73.7396    4.0626 C.ar    1  UNL1        0.2626
     19 C          26.5554   74.3762    3.9370 C.ar    1  UNL1        0.0795
     20 C          25.5635   73.7450    3.2742 C.ar    1  UNL1        0.0869
     21 O          27.1623   70.8062    2.3897 O.2     1  UNL1       -0.2464
     22 O          28.7256   74.2913    4.6530 O.2     1  UNL1       -0.2670
     23 H          28.8528   72.0745    3.6059 H       1  UNL1        0.1734
     24 O          22.0080   72.3489   -3.6628 O.3     1  UNL1       -0.2703
     25 P          20.7971   71.2954   -3.5327 P.3     1  UNL1        0.2208
     26 O          21.3495   69.8073   -3.8046 O.3     1  UNL1       -0.4371
     27 O          20.2246   71.3672   -2.1705 O.2     1  UNL1       -0.5170
     28 O          19.6579   71.6513   -4.6136 O.3     1  UNL1       -0.2865
     29 C          19.3416   70.8033   -5.7191 C.3     1  UNL1        0.2611
     30 C          18.9045   71.6587   -6.9108 C.3     1  UNL1        0.1582
     31 C          17.6341   72.4286   -6.5369 C.3     1  UNL1        0.1625
     32 C          16.5530   71.4319   -6.1101 C.3     1  UNL1        0.1686
     33 C          17.0809   70.5852   -4.9489 C.3     1  UNL1        0.1760
     34 O          17.1773   73.1735   -7.6681 O.3     1  UNL1       -0.3801
     35 O          16.2252   70.5824   -7.2110 O.3     1  UNL1       -0.3794
     36 O          18.2795   69.9202   -5.3529 O.3     1  UNL1       -0.3263
     37 H          16.3748   73.6870   -7.5023 H       1  UNL1        0.2105
     38 H          15.5452   69.9237   -7.0115 H       1  UNL1        0.2105
     39 C          20.0048   73.8187   -6.6629 C.2     1  UNL1        0.2231
     40 C          21.0993   74.7931   -7.0108 C.3     1  UNL1        0.0946
     41 N          19.9694   72.6061   -7.2498 N.am    1  UNL1       -0.2994
     42 O          19.1541   74.1251   -5.8539 O.2     1  UNL1       -0.2751
     43 H          20.6487   72.3610   -7.8975 H       1  UNL1        0.1496
     44 C          16.0287   69.5466   -4.5558 C.3     1  UNL1        0.1693
     45 O          16.0372   68.4766   -5.5030 O.3     1  UNL1       -0.3794
     46 H          15.3933   67.7799   -5.3161 H       1  UNL1        0.2105
@<TRIPOS>BOND
     1    29    30    1
     2    30    41    1
     3    30    31    1
     4    31    34    1
     5    31    32    1
     6    32    35    1
     7    32    33    1
     8    33    36    1
     9    33    44    1
    10    39    40    1
    11    39    42    2
    12    39    41   am
    13    41    43    1
    14    29    28    1
    15    34    37    1
    16    35    38    1
    17    29    36    1
    18    44    45    1
    19    45    46    1
    20    15     6    1
    21    15    16   ar
    22    16    21    2
    23    16    17   ar
    24    17    23    1
    25    17    18   ar
    26    18    19   ar
    27    19    20   ar
    28    15    20   ar
    29    18    22    2
    30     6     7    1
    31     6    11    1
    32     7     9    1
    33     7     8    1
    34     8    13    1
    35     9    10    1
    36     9    12    1
    37    10     5    1
    38    10    11    1
    39    12    14    1
    40     5     4    1
    41     4     1    1
    42     1     2    1
    43     1    24    1
    44     1     3    2
    45    24    25    1
    46    28    25    1
    47    25    26    1
    48    25    27    2
@<TRIPOS>MOLECULE
UD2
 46 48 0 0 0
SMALL
GASTEIGER

@<TRIPOS>ATOM
      1 P          23.4837   72.1064   -3.3273 P.3     1  UNL1        0.2189
      2 O          24.4438   73.0247   -4.2363 O.3     1  UNL1       -0.4371
      3 O          24.1567   70.8204   -3.0409 O.2     1  UNL1       -0.5170
      4 O          23.1673   72.8667   -1.9432 O.3     1  UNL1       -0.3112
      5 C          21.8487   72.9871   -1.4065 C.3     1  UNL1        0.1811
      6 C          23.2165   72.0458    1.7841 C.3     1  UNL1        0.2383
      7 C          22.5064   73.3979    2.0481 C.3     1  UNL1        0.1895
      8 O          22.0092   73.4602    3.3862 O.3     1  UNL1       -0.3779
      9 C          21.3425   73.3588    1.0276 C.3     1  UNL1        0.1713
     10 C          21.7989   72.3303   -0.0248 C.3     1  UNL1        0.1764
     11 O          23.1117   71.8857    0.3527 O.3     1  UNL1       -0.3308
     12 O          20.1378   72.9256    1.6614 O.3     1  UNL1       -0.3794
     13 H          21.5571   74.2876    3.6000 H       1  UNL1        0.2106
     14 H          19.8363   73.5059    2.3733 H       1  UNL1        0.2105
     15 N          24.6208   72.1118    2.1948 N.ar    1  UNL1       -0.2551
     16 C          25.3538   70.9854    2.2460 C.ar    1  UNL1        0.3323
     17 N          26.6465   71.0164    2.6201 N.ar    1  UNL1       -0.2743
     18 C          27.2298   72.1868    2.9496 C.ar    1  UNL1        0.2626
     19 C          26.4703   73.3804    2.8991 C.ar    1  UNL1        0.0795
     20 C          25.1775   73.3204    2.5164 C.ar    1  UNL1        0.0869
     21 O          24.8410   69.9230    1.9515 O.2     1  UNL1       -0.2464
     22 O          28.3999   72.2164    3.2879 O.2     1  UNL1       -0.2670
     23 H          27.1603   70.1948    2.6528 H       1  UNL1        0.1734
     24 O          22.1058   71.8281   -4.1130 O.3     1  UNL1       -0.2703
     25 P          21.5166   72.2959   -5.5367 P.3     1  UNL1        0.2208
     26 O          21.2902   73.8904   -5.5254 O.3     1  UNL1       -0.4371
     27 O          22.4739   71.9418   -6.6075 O.2     1  UNL1       -0.5170
     28 O          20.1121   71.5559   -5.8055 O.3     1  UNL1       -0.2865
     29 C          19.0229   72.1779   -6.4897 C.3     1  UNL1        0.2611
     30 C          17.7020   71.7415   -5.8513 C.3     1  UNL1        0.1582
     31 C          17.5452   70.2258   -6.0082 C.3     1  UNL1        0.1625
     32 C          17.6177   69.8671   -7.4950 C.3     1  UNL1        0.1686
     33 C          18.9422   70.3759   -8.0702 C.3     1  UNL1        0.1760
     34 O          16.2806   69.8197   -5.4800 O.3     1  UNL1       -0.3801
     35 O          16.5288   70.4800   -8.1878 O.3     1  UNL1       -0.3794
     36 O          19.0386   71.7866   -7.8641 O.3     1  UNL1       -0.3263
     37 H          16.1143   68.8693   -5.5458 H       1  UNL1        0.2105
     38 H          16.5122   70.2955   -9.1374 H       1  UNL1        0.2105
     39 C          18.1747   71.2067   -3.5214 C.2     1  UNL1        0.2231
     40 C          18.1820   71.5626   -2.0579 C.3     1  UNL1        0.0946
     41 N          17.7085   72.0883   -4.4278 N.am    1  UNL1       -0.2994
     42 O          18.5888   70.1258   -3.8850 O.2     1  UNL1       -0.2751
     43 H          17.3765   72.9522   -4.1374 H       1  UNL1        0.1496
     44 C          18.9964   70.0742   -9.5690 C.3     1  UNL1        0.1693
     45 O          18.4677   71.1835  -10.2984 O.3     1  UNL1       -0.3794
     46 H          18.4708   71.0617  -11.2577 H       1  UNL1        0.2105
@<TRIPOS>BOND
     1    29    30    1
     2    30    41    1
     3    30    31    1
     4    31    34    1
     5    31    32    1
     6    32    35    1
     7    32    33    1
     8    33    36    1
     9    33    44    1
    10    39    40    1
    11    39    42    2
    12    39    41   am
    13    41    43    1
    14    29    28    1
    15    34    37    1
    16    35    38    1
    17    29    36    1
    18    44    45    1
    19    45    46    1
    20    15     6    1
    21    15    16   ar
    22    16    21    2
    23    16    17   ar
    24    17    23    1
    25    17    18   ar
    26    18    19   ar
    27    19    20   ar
    28    15    20   ar
    29    18    22    2
    30     6     7    1
    31     6    11    1
    32     7     9    1
    33     7     8    1
    34     8    13    1
    35     9    10    1
    36     9    12    1
    37    10     5    1
    38    10    11    1
    39    12    14    1
    40     5     4    1
    41     4     1    1
    42     1     2    1
    43     1    24    1
    44     1     3    2
    45    24    25    1
    46    28    25    1
    47    25    26    1
    48    25    27    2
@<TRIPOS>MOLECULE
UD2
 46 48 0 0 0
SMALL
GASTEIGER

@<TRIPOS>ATOM
      1 P          21.0781   71.5438   -2.4394 P.3     1  UNL1        0.2189
      2 O          21.9120   70.4039   -3.2118 O.3     1  UNL1       -0.4371
      3 O          21.7074   72.8618   -2.6758 O.2     1  UNL1       -0.5170
      4 O          19.5641   71.5657   -2.9881 O.3     1  UNL1       -0.3112
      5 C          18.5137   70.7953   -2.4013 C.3     1  UNL1        0.1811
      6 C          16.9355   70.5058   -5.6203 C.3     1  UNL1        0.2383
      7 C          16.9306   69.0636   -5.0528 C.3     1  UNL1        0.1895
      8 O          15.7996   68.3317   -5.5294 O.3     1  UNL1       -0.3779
      9 C          16.8240   69.3142   -3.5286 C.3     1  UNL1        0.1713
     10 C          17.3131   70.7642   -3.3503 C.3     1  UNL1        0.1764
     11 O          17.7018   71.2470   -4.6461 O.3     1  UNL1       -0.3308
     12 O          15.4687   69.1862   -3.0955 O.3     1  UNL1       -0.3794
     13 H          15.7525   67.4232   -5.2024 H       1  UNL1        0.2106
     14 H          15.0904   68.3083   -3.2389 H       1  UNL1        0.2105
     15 N          17.5911   70.5427   -6.9295 N.ar    1  UNL1       -0.2551
     16 C          16.8485   70.4754   -8.0488 C.ar    1  UNL1        0.3323
     17 N          17.4243   70.5069   -9.2652 N.ar    1  UNL1       -0.2743
     18 C          18.7641   70.6091   -9.3794 C.ar    1  UNL1        0.2626
     19 C          19.5580   70.6819   -8.2095 C.ar    1  UNL1        0.0795
     20 C          18.9537   70.6523   -7.0031 C.ar    1  UNL1        0.0869
     21 O          15.6393   70.3832   -7.9609 O.2     1  UNL1       -0.2464
     22 O          19.2865   70.6382  -10.4797 O.2     1  UNL1       -0.2670
     23 H          16.8742   70.4561  -10.0620 H       1  UNL1        0.1734
     24 O          21.0715   71.2273   -0.8605 O.3     1  UNL1       -0.2703
     25 P          21.9224   71.7736    0.3928 P.3     1  UNL1        0.2208
     26 O          21.9143   70.6718    1.5674 O.3     1  UNL1       -0.4371
     27 O          23.3159   72.0312   -0.0315 O.2     1  UNL1       -0.5170
     28 O          21.2642   73.1400    0.9335 O.3     1  UNL1       -0.2865
     29 C          22.0392   74.2641    1.3543 C.3     1  UNL1        0.2611
     30 C          23.5192   74.0014    1.0660 C.3     1  UNL1        0.1582
     31 C          23.9812   72.7877    1.8783 C.3     1  UNL1        0.1625
     32 C          23.7168   73.0503    3.3634 C.3     1  UNL1        0.1686
     33 C          22.2287   73.3497    3.5632 C.3     1  UNL1        0.1760
     34 O          25.3802   72.5796    1.6718 O.3     1  UNL1       -0.3801
     35 O          24.4920   74.1698    3.7959 O.3     1  UNL1       -0.3794
     36 O          21.8573   74.4694    2.7568 O.3     1  UNL1       -0.3263
     37 H          25.7410   71.8247    2.1567 H       1  UNL1        0.2105
     38 H          24.3733   74.3941    4.7295 H       1  UNL1        0.2105
     39 C          24.2944   74.6473   -1.1521 C.2     1  UNL1        0.2231
     40 C          24.4798   74.3705   -2.6209 C.3     1  UNL1        0.0946
     41 N          23.6990   73.7315   -0.3628 N.am    1  UNL1       -0.2994
     42 O          24.6811   75.6954   -0.6786 O.2     1  UNL1       -0.2751
     43 H          23.3888   72.8938   -0.7411 H       1  UNL1        0.1496
     44 C          21.9668   73.6719    5.0356 C.3     1  UNL1        0.1693
     45 O          22.3094   72.5412    5.8397 O.3     1  UNL1       -0.3794
     46 H          22.1684   72.6743    6.7870 H       1  UNL1        0.2105
@<TRIPOS>BOND
     1    29    30    1
     2    30    41    1
     3    30    31    1
     4    31    34    1
     5    31    32    1
     6    32    35    1
     7    32    33    1
     8    33    36    1
     9    33    44    1
    10    39    40    1
    11    39    42    2
    12    39    41   am
    13    41    43    1
    14    29    28    1
    15    34    37    1
    16    35    38    1
    17    29    36    1
    18    44    45    1
    19    45    46    1
    20    15     6    1
    21    15    16   ar
    22    16    21    2
    23    16    17   ar
    24    17    23    1
    25    17    18   ar
    26    18    19   ar
    27    19    20   ar
    28    15    20   ar
    29    18    22    2
    30     6     7    1
    31     6    11    1
    32     7     9    1
    33     7     8    1
    34     8    13    1
    35     9    10    1
    36     9    12    1
    37    10     5    1
    38    10    11    1
    39    12    14    1
    40     5     4    1
    41     4     1    1
    42     1     2    1
    43     1    24    1
    44     1     3    2
    45    24    25    1
    46    28    25    1
    47    25    26    1
    48    25    27    2
@<TRIPOS>MOLECULE
UD2
 46 48 0 0 0
SMALL
GASTEIGER

@<TRIPOS>ATOM
      1 P          21.8672   73.0212   -6.4896 P.3     1  UNL1        0.2189
      2 O          23.0826   73.5368   -7.4107 O.3     1  UNL1       -0.4371
      3 O          20.7820   74.0268   -6.4953 O.2     1  UNL1       -0.5170
      4 O          21.3092   71.6261   -7.0692 O.3     1  UNL1       -0.3112
      5 C          20.7178   71.5034   -8.3640 C.3     1  UNL1        0.1811
      6 C          17.7436   70.0422   -6.9657 C.3     1  UNL1        0.2383
      7 C          17.2233   71.0455   -8.0263 C.3     1  UNL1        0.1895
      8 O          15.9909   70.5957   -8.5926 O.3     1  UNL1       -0.3779
      9 C          18.3570   71.0213   -9.0806 C.3     1  UNL1        0.1713
     10 C          19.5774   70.4839   -8.3090 C.3     1  UNL1        0.1764
     11 O          19.1675   70.2821   -6.9471 O.3     1  UNL1       -0.3308
     12 O          18.0191   70.1444  -10.1565 O.3     1  UNL1       -0.3794
     13 H          15.6249   71.1903   -9.2613 H       1  UNL1        0.2106
     14 H          17.2233   70.4028  -10.6405 H       1  UNL1        0.2105
     15 N          17.1550   70.3258   -5.6549 N.ar    1  UNL1       -0.2551
     16 C          16.4619   69.3677   -5.0143 C.ar    1  UNL1        0.3323
     17 N          15.9100   69.6006   -3.8087 N.ar    1  UNL1       -0.2743
     18 C          16.0470   70.8066   -3.2211 C.ar    1  UNL1        0.2626
     19 C          16.7750   71.8241   -3.8837 C.ar    1  UNL1        0.0795
     20 C          17.3211   71.5615   -5.0897 C.ar    1  UNL1        0.0869
     21 O          16.3305   68.2755   -5.5321 O.2     1  UNL1       -0.2464
     22 O          15.5484   71.0186   -2.1298 O.2     1  UNL1       -0.2670
     23 H          15.4124   68.8991   -3.3611 H       1  UNL1        0.1734
     24 O          22.3905   72.8043   -4.9821 O.3     1  UNL1       -0.2703
     25 P          23.1619   73.7384   -3.9213 P.3     1  UNL1        0.2208
     26 O          24.7484   73.4880   -4.0406 O.3     1  UNL1       -0.4371
     27 O          22.8645   75.1591   -4.2068 O.2     1  UNL1       -0.5170
     28 O          22.6716   73.3760   -2.4311 O.3     1  UNL1       -0.2865
     29 C          23.4631   72.6189   -1.5137 C.3     1  UNL1        0.2611
     30 C          22.6535   71.4235   -1.0055 C.3     1  UNL1        0.1582
     31 C          21.4247   71.9352   -0.2474 C.3     1  UNL1        0.1625
     32 C          21.8849   72.8504    0.8905 C.3     1  UNL1        0.1686
     33 C          22.7243   73.9912    0.3091 C.3     1  UNL1        0.1760
     34 O          20.7021   70.8269    0.2936 O.3     1  UNL1       -0.3801
     35 O          22.6730   72.1012    1.8172 O.3     1  UNL1       -0.3794
     36 O          23.8332   73.4464   -0.4089 O.3     1  UNL1       -0.3263
     37 H          19.9092   71.0780    0.7871 H       1  UNL1        0.2105
     38 H          22.9998   72.6195    2.5658 H       1  UNL1        0.2105
     39 C          21.0072   70.8024   -2.6913 C.2     1  UNL1        0.2231
     40 C          20.5631   69.9625   -3.8600 C.3     1  UNL1        0.0946
     41 N          22.2221   70.6059   -2.1422 N.am    1  UNL1       -0.2994
     42 O          20.2709   71.6565   -2.2433 O.2     1  UNL1       -0.2751
     43 H          22.8107   69.9225   -2.4994 H       1  UNL1        0.1496
     44 C          23.2378   74.8769    1.4459 C.3     1  UNL1        0.1693
     45 O          22.2268   75.0004    2.4484 O.3     1  UNL1       -0.3794
     46 H          22.4838   75.5498    3.2014 H       1  UNL1        0.2105
@<TRIPOS>BOND
     1    29    30    1
     2    30    41    1
     3    30    31    1
     4    31    34    1
     5    31    32    1
     6    32    35    1
     7    32    33    1
     8    33    36    1
     9    33    44    1
    10    39    40    1
    11    39    42    2
    12    39    41   am
    13    41    43    1
    14    29    28    1
    15    34    37    1
    16    35    38    1
    17    29    36    1
    18    44    45    1
    19    45    46    1
    20    15     6    1
    21    15    16   ar
    22    16    21    2
    23    16    17   ar
    24    17    23    1
    25    17    18   ar
    26    18    19   ar
    27    19    20   ar
    28    15    20   ar
    29    18    22    2
    30     6     7    1
    31     6    11    1
    32     7     9    1
    33     7     8    1
    34     8    13    1
    35     9    10    1
    36     9    12    1
    37    10     5    1
    38    10    11    1
    39    12    14    1
    40     5     4    1
    41     4     1    1
    42     1     2    1
    43     1    24    1
    44     1     3    2
    45    24    25    1
    46    28    25    1
    47    25    26    1
    48    25    27    2
@<TRIPOS>MOLECULE
UD2
 46 48 0 0 0
SMALL
GASTEIGER

@<TRIPOS>ATOM
      1 P          16.4499   69.9958   -2.4257 P.3     1  UNL1        0.2189
      2 O          17.0989   68.5550   -2.1183 O.3     1  UNL1       -0.4371
      3 O          16.1786   70.1162   -3.8751 O.2     1  UNL1       -0.5170
      4 O          15.0714   70.1489   -1.6071 O.3     1  UNL1       -0.3112
      5 C          14.6750   69.2425   -0.5761 C.3     1  UNL1        0.1811
      6 C          11.1919   68.3458   -0.5564 C.3     1  UNL1        0.2383
      7 C          11.7419   67.8021    0.7867 C.3     1  UNL1        0.1895
      8 O          10.7301   67.8169    1.7956 O.3     1  UNL1       -0.3779
      9 C          12.8633   68.8182    1.1142 C.3     1  UNL1        0.1713
     10 C          13.1967   69.4621   -0.2451 C.3     1  UNL1        0.1764
     11 O          12.3743   68.8231   -1.2344 O.3     1  UNL1       -0.3308
     12 O          12.3901   69.8047    2.0328 O.3     1  UNL1       -0.3794
     13 H          11.0257   67.4853    2.6543 H       1  UNL1        0.2106
     14 H          12.1102   69.4467    2.8860 H       1  UNL1        0.2105
     15 N          10.5536   67.2742   -1.3240 N.ar    1  UNL1       -0.2551
     16 C           9.5932   67.5747   -2.2163 C.ar    1  UNL1        0.3323
     17 N           8.9894   66.6101   -2.9355 N.ar    1  UNL1       -0.2743
     18 C           9.3431   65.3191   -2.7714 C.ar    1  UNL1        0.2626
     19 C          10.3533   64.9887   -1.8363 C.ar    1  UNL1        0.0795
     20 C          10.9447   65.9764   -1.1319 C.ar    1  UNL1        0.0869
     21 O           9.2643   68.7345   -2.3749 O.2     1  UNL1       -0.2464
     22 O           8.7977   64.4452   -3.4219 O.2     1  UNL1       -0.2670
     23 H           8.2980   66.8440   -3.5737 H       1  UNL1        0.1734
     24 O          17.4735   71.1535   -1.9729 O.3     1  UNL1       -0.2703
     25 P          19.0558   71.3839   -2.1635 P.3     1  UNL1        0.2208
     26 O          19.4819   72.7755   -1.4737 O.3     1  UNL1       -0.4371
     27 O          19.7966   70.2721   -1.5283 O.2     1  UNL1       -0.5170
     28 O          19.4053   71.4340   -3.7345 O.3     1  UNL1       -0.2865
     29 C          20.4184   70.6235   -4.3328 C.3     1  UNL1        0.2611
     30 C          21.7741   71.3224   -4.2049 C.3     1  UNL1        0.1582
     31 C          21.7287   72.6494   -4.9687 C.3     1  UNL1        0.1625
     32 C          21.3529   72.3740   -6.4273 C.3     1  UNL1        0.1686
     33 C          20.0131   71.6344   -6.4695 C.3     1  UNL1        0.1760
     34 O          23.0132   73.2744   -4.9163 O.3     1  UNL1       -0.3801
     35 O          22.3632   71.5684   -7.0368 O.3     1  UNL1       -0.3794
     36 O          20.1145   70.4250   -5.7150 O.3     1  UNL1       -0.3263
     37 H          23.0571   74.1218   -5.3801 H       1  UNL1        0.2105
     38 H          22.1898   71.3537   -7.9641 H       1  UNL1        0.2105
     39 C          23.2842   71.3184   -2.2925 C.2     1  UNL1        0.2231
     40 C          23.5791   71.5838   -0.8395 C.3     1  UNL1        0.0946
     41 N          22.0600   71.5806   -2.7914 N.am    1  UNL1       -0.2994
     42 O          24.1490   70.8683   -3.0148 O.2     1  UNL1       -0.2751
     43 H          21.3681   71.9396   -2.2140 H       1  UNL1        0.1496
     44 C          19.6595   71.3026   -7.9204 C.3     1  UNL1        0.1693
     45 O          18.4287   70.5771   -7.9576 O.3     1  UNL1       -0.3794
     46 H          18.1424   70.3327   -8.8483 H       1  UNL1        0.2105
@<TRIPOS>BOND
     1    29    30    1
     2    30    41    1
     3    30    31    1
     4    31    34    1
     5    31    32    1
     6    32    35    1
     7    32    33    1
     8    33    36    1
     9    33    44    1
    10    39    40    1
    11    39    42    2
    12    39    41   am
    13    41    43    1
    14    29    28    1
    15    34    37    1
    16    35    38    1
    17    29    36    1
    18    44    45    1
    19    45    46    1
    20    15     6    1
    21    15    16   ar
    22    16    21    2
    23    16    17   ar
    24    17    23    1
    25    17    18   ar
    26    18    19   ar
    27    19    20   ar
    28    15    20   ar
    29    18    22    2
    30     6     7    1
    31     6    11    1
    32     7     9    1
    33     7     8    1
    34     8    13    1
    35     9    10    1
    36     9    12    1
    37    10     5    1
    38    10    11    1
    39    12    14    1
    40     5     4    1
    41     4     1    1
    42     1     2    1
    43     1    24    1
    44     1     3    2
    45    24    25    1
    46    28    25    1
    47    25    26    1
    48    25    27    2
@<TRIPOS>MOLECULE
UD2
 46 48 0 0 0
SMALL
GASTEIGER

@<TRIPOS>ATOM
      1 P          23.1178   73.3937   -4.2628 P.3     1  UNL1        0.2189
      2 O          24.4382   72.4994   -4.0434 O.3     1  UNL1       -0.4371
      3 O          23.4749   74.6316   -4.9901 O.2     1  UNL1       -0.5170
      4 O          22.0408   72.5587   -5.1210 O.3     1  UNL1       -0.3112
      5 C          22.1706   72.3368   -6.5265 C.3     1  UNL1        0.1811
      6 C          18.6448   71.9759   -7.1391 C.3     1  UNL1        0.2383
      7 C          18.7423   73.0946   -6.0708 C.3     1  UNL1        0.1895
      8 O          17.6696   74.0281   -6.2106 O.3     1  UNL1       -0.3779
      9 C          20.0989   73.7564   -6.4157 C.3     1  UNL1        0.1713
     10 C          20.8499   72.6785   -7.2206 C.3     1  UNL1        0.1764
     11 O          20.0077   71.5158   -7.2683 O.3     1  UNL1       -0.3308
     12 O          19.8959   74.9250   -7.2118 O.3     1  UNL1       -0.3794
     13 H          17.6865   74.7468   -5.5641 H       1  UNL1        0.2106
     14 H          19.3772   75.6140   -6.7752 H       1  UNL1        0.2105
     15 N          17.7761   70.8925   -6.6737 N.ar    1  UNL1       -0.2551
     16 C          16.6972   70.5456   -7.3980 C.ar    1  UNL1        0.3323
     17 N          15.8813   69.5540   -6.9942 N.ar    1  UNL1       -0.2743
     18 C          16.1373   68.8880   -5.8499 C.ar    1  UNL1        0.2626
     19 C          17.2701   69.2420   -5.0781 C.ar    1  UNL1        0.0795
     20 C          18.0732   70.2374   -5.5090 C.ar    1  UNL1        0.0869
     21 O          16.4543   71.1373   -8.4321 O.2     1  UNL1       -0.2464
     22 O          15.3998   67.9900   -5.4835 O.2     1  UNL1       -0.2670
     23 H          15.1071   69.3174   -7.5278 H       1  UNL1        0.1734
     24 O          22.4837   73.7751   -2.8325 O.3     1  UNL1       -0.2703
     25 P          22.9151   74.7803   -1.6507 P.3     1  UNL1        0.2208
     26 O          24.4675   75.1736   -1.8214 O.3     1  UNL1       -0.4371
     27 O          22.0867   76.0040   -1.7167 O.2     1  UNL1       -0.5170
     28 O          22.6969   74.0599   -0.2273 O.3     1  UNL1       -0.2865
     29 C          22.9639   72.6737   -0.0073 C.3     1  UNL1        0.2611
     30 C          21.7912   72.0404    0.7454 C.3     1  UNL1        0.1582
     31 C          21.6537   72.7108    2.1158 C.3     1  UNL1        0.1625
     32 C          22.9753   72.5700    2.8760 C.3     1  UNL1        0.1686
     33 C          24.1026   73.1830    2.0409 C.3     1  UNL1        0.1760
     34 O          20.6077   72.0759    2.8548 O.3     1  UNL1       -0.3801
     35 O          23.2488   71.1867    3.1063 O.3     1  UNL1       -0.3794
     36 O          24.1564   72.5359    0.7681 O.3     1  UNL1       -0.3263
     37 H          20.4645   72.4512    3.7345 H       1  UNL1        0.2105
     38 H          24.0739   71.0224    3.5841 H       1  UNL1        0.2105
     39 C          20.2337   71.3730   -1.0057 C.2     1  UNL1        0.2231
     40 C          18.9649   71.5705   -1.7930 C.3     1  UNL1        0.0946
     41 N          20.5570   72.2333   -0.0201 N.am    1  UNL1       -0.2994
     42 O          20.9656   70.4389   -1.2587 O.2     1  UNL1       -0.2751
     43 H          19.9726   72.9809    0.1818 H       1  UNL1        0.1496
     44 C          25.4359   72.9932    2.7668 C.3     1  UNL1        0.1693
     45 O          25.4792   73.8430    3.9149 O.3     1  UNL1       -0.3794
     46 H          26.2982   73.7750    4.4246 H       1  UNL1        0.2105
@<TRIPOS>BOND
     1    29    30    1
     2    30    41    1
     3    30    31    1
     4    31    34    1
     5    31    32    1
     6    32    35    1
     7    32    33    1
     8    33    36    1
     9    33    44    1
    10    39    40    1
    11    39    42    2
    12    39    41   am
    13    41    43    1
    14    29    28    1
    15    34    37    1
    16    35    38    1
    17    29    36    1
    18    44    45    1
    19    45    46    1
    20    15     6    1
    21    15    16   ar
    22    16    21    2
    23    16    17   ar
    24    17    23    1
    25    17    18   ar
    26    18    19   ar
    27    19    20   ar
    28    15    20   ar
    29    18    22    2
    30     6     7    1
    31     6    11    1
    32     7     9    1
    33     7     8    1
    34     8    13    1
    35     9    10    1
    36     9    12    1
    37    10     5    1
    38    10    11    1
    39    12    14    1
    40     5     4    1
    41     4     1    1
    42     1     2    1
    43     1    24    1
    44     1     3    2
    45    24    25    1
    46    28    25    1
    47    25    26    1
    48    25    27    2
@<TRIPOS>MOLECULE
UD2
 46 48 0 0 0
SMALL
GASTEIGER

@<TRIPOS>ATOM
      1 P          16.2554   69.5773   -2.4382 P.3     1  UNL1        0.2189
      2 O          17.0804   68.3256   -1.8517 O.3     1  UNL1       -0.4371
      3 O          16.0405   69.3907   -3.8900 O.2     1  UNL1       -0.5170
      4 O          14.8311   69.6776   -1.6933 O.3     1  UNL1       -0.3112
      5 C          14.6799   69.5213   -0.2811 C.3     1  UNL1        0.1811
      6 C          13.1616   67.0665    1.8648 C.3     1  UNL1        0.2383
      7 C          11.9891   67.9812    1.4285 C.3     1  UNL1        0.1895
      8 O          10.7647   67.2470    1.3677 O.3     1  UNL1       -0.3779
      9 C          12.4349   68.4297    0.0152 C.3     1  UNL1        0.1713
     10 C          13.9588   68.2033    0.0116 C.3     1  UNL1        0.1764
     11 O          14.3235   67.7259    1.3164 O.3     1  UNL1       -0.3308
     12 O          11.8070   67.6255   -0.9847 O.3     1  UNL1       -0.3794
     13 H          10.0013   67.7762    1.0997 H       1  UNL1        0.2106
     14 H          10.8421   67.6840   -0.9888 H       1  UNL1        0.2105
     15 N          13.2474   66.9993    3.3254 N.ar    1  UNL1       -0.2551
     16 C          12.9513   65.8500    3.9581 C.ar    1  UNL1        0.3323
     17 N          13.0214   65.7597    5.2994 N.ar    1  UNL1       -0.2743
     18 C          13.3942   66.8281    6.0331 C.ar    1  UNL1        0.2626
     19 C          13.7098   68.0438    5.3800 C.ar    1  UNL1        0.0795
     20 C          13.6350   68.1047    4.0338 C.ar    1  UNL1        0.0869
     21 O          12.6138   64.8786    3.3094 O.2     1  UNL1       -0.2464
     22 O          13.4585   66.7475    7.2471 O.2     1  UNL1       -0.2670
     23 H          12.8033   64.9239    5.7398 H       1  UNL1        0.1734
     24 O          17.0875   70.9333   -2.1884 O.3     1  UNL1       -0.2703
     25 P          18.6467   71.3226   -2.2888 P.3     1  UNL1        0.2208
     26 O          18.8951   72.7348   -1.5555 O.3     1  UNL1       -0.4371
     27 O          19.4600   70.2763   -1.6313 O.2     1  UNL1       -0.5170
     28 O          19.0720   71.4395   -3.8374 O.3     1  UNL1       -0.2865
     29 C          20.0966   70.6365   -4.4260 C.3     1  UNL1        0.2611
     30 C          21.4263   71.3934   -4.3849 C.3     1  UNL1        0.1582
     31 C          21.3017   72.6727   -5.2182 C.3     1  UNL1        0.1625
     32 C          20.8890   72.3014   -6.6452 C.3     1  UNL1        0.1686
     33 C          19.5796   71.5093   -6.5991 C.3     1  UNL1        0.1760
     34 O          22.5608   73.3488   -5.2458 O.3     1  UNL1       -0.3801
     35 O          21.9103   71.5025   -7.2452 O.3     1  UNL1       -0.3794
     36 O          19.7551   70.3491   -5.7836 O.3     1  UNL1       -0.3263
     37 H          22.5547   74.1699   -5.7566 H       1  UNL1        0.2105
     38 H          21.7148   71.2296   -8.1525 H       1  UNL1        0.2105
     39 C          23.0082   71.5958   -2.5425 C.2     1  UNL1        0.2231
     40 C          23.3404   71.9535   -1.1177 C.3     1  UNL1        0.0946
     41 N          21.7486   71.7414   -2.9987 N.am    1  UNL1       -0.2994
     42 O          23.8750   71.1760   -3.2806 O.2     1  UNL1       -0.2751
     43 H          21.0551   72.0761   -2.4087 H       1  UNL1        0.1496
     44 C          19.1916   71.0832   -8.0162 C.3     1  UNL1        0.1693
     45 O          19.9909   69.9675   -8.4146 O.3     1  UNL1       -0.3794
     46 H          19.7986   69.6432   -9.3051 H       1  UNL1        0.2105
@<TRIPOS>BOND
     1    29    30    1
     2    30    41    1
     3    30    31    1
     4    31    34    1
     5    31    32    1
     6    32    35    1
     7    32    33    1
     8    33    36    1
     9    33    44    1
    10    39    40    1
    11    39    42    2
    12    39    41   am
    13    41    43    1
    14    29    28    1
    15    34    37    1
    16    35    38    1
    17    29    36    1
    18    44    45    1
    19    45    46    1
    20    15     6    1
    21    15    16   ar
    22    16    21    2
    23    16    17   ar
    24    17    23    1
    25    17    18   ar
    26    18    19   ar
    27    19    20   ar
    28    15    20   ar
    29    18    22    2
    30     6     7    1
    31     6    11    1
    32     7     9    1
    33     7     8    1
    34     8    13    1
    35     9    10    1
    36     9    12    1
    37    10     5    1
    38    10    11    1
    39    12    14    1
    40     5     4    1
    41     4     1    1
    42     1     2    1
    43     1    24    1
    44     1     3    2
    45    24    25    1
    46    28    25    1
    47    25    26    1
    48    25    27    2
@<TRIPOS>MOLECULE
UD2
 46 48 0 0 0
SMALL
GASTEIGER

@<TRIPOS>ATOM
      1 P          20.1016   73.8588   -0.0431 P.3     1  UNL1        0.2189
      2 O          18.5048   73.6592    0.0002 O.3     1  UNL1       -0.4371
      3 O          20.4151   75.2908   -0.2423 O.2     1  UNL1       -0.5170
      4 O          20.7427   73.3572    1.3465 O.3     1  UNL1       -0.3112
      5 C          21.9968   73.8318    1.8399 C.3     1  UNL1        0.1811
      6 C          25.2420   72.2946    2.0459 C.3     1  UNL1        0.2383
      7 C          24.2935   71.3002    2.7627 C.3     1  UNL1        0.1895
      8 O          24.7545   69.9563    2.6111 O.3     1  UNL1       -0.3779
      9 C          22.9616   71.5163    2.0032 C.3     1  UNL1        0.1713
     10 C          23.1171   72.9067    1.3583 C.3     1  UNL1        0.1764
     11 O          24.3915   73.4281    1.7677 O.3     1  UNL1       -0.3308
     12 O          22.7919   70.5147    0.9988 O.3     1  UNL1       -0.3794
     13 H          24.1945   69.2970    3.0428 H       1  UNL1        0.2106
     14 H          22.7474   69.6132    1.3449 H       1  UNL1        0.2105
     15 N          26.3457   72.6813    2.9275 N.ar    1  UNL1       -0.2551
     16 C          27.4465   71.9115    2.9941 C.ar    1  UNL1        0.3323
     17 N          28.4759   72.2425    3.7959 N.ar    1  UNL1       -0.2743
     18 C          28.4182   73.3604    4.5480 C.ar    1  UNL1        0.2626
     19 C          27.2660   74.1805    4.4870 C.ar    1  UNL1        0.0795
     20 C          26.2506   73.8267    3.6713 C.ar    1  UNL1        0.0869
     21 O          27.5124   70.9008    2.3214 O.2     1  UNL1       -0.2464
     22 O          29.3495   73.6614    5.2738 O.2     1  UNL1       -0.2670
     23 H          29.2617   71.6757    3.8329 H       1  UNL1        0.1734
     24 O          20.7173   73.0000   -1.2583 O.3     1  UNL1       -0.2703
     25 P          20.6960   71.4373   -1.6462 P.3     1  UNL1        0.2208
     26 O          22.1618   70.9871   -2.1387 O.3     1  UNL1       -0.4371
     27 O          20.3077   70.6401   -0.4621 O.2     1  UNL1       -0.5170
     28 O          19.6328   71.1929   -2.8305 O.3     1  UNL1       -0.2865
     29 C          19.2046   69.8915   -3.2358 C.3     1  UNL1        0.2611
     30 C          18.7903   69.9254   -4.7089 C.3     1  UNL1        0.1582
     31 C          17.6026   70.8784   -4.8745 C.3     1  UNL1        0.1625
     32 C          16.4625   70.4196   -3.9613 C.3     1  UNL1        0.1686
     33 C          16.9666   70.3667   -2.5166 C.3     1  UNL1        0.1760
     34 O          17.1621   70.8603   -6.2343 O.3     1  UNL1       -0.3801
     35 O          16.0227   69.1206   -4.3621 O.3     1  UNL1       -0.3794
     36 O          18.0901   69.4872   -2.4378 O.3     1  UNL1       -0.3263
     37 H          16.4112   71.4431   -6.4118 H       1  UNL1        0.2105
     38 H          15.3003   68.7661   -3.8250 H       1  UNL1        0.2105
     39 C          20.0296   71.7071   -5.8168 C.2     1  UNL1        0.2231
     40 C          21.1844   72.1929   -6.6528 C.3     1  UNL1        0.0946
     41 N          19.9138   70.3971   -5.5224 N.am    1  UNL1       -0.2994
     42 O          19.2027   72.4953   -5.4078 O.2     1  UNL1       -0.2751
     43 H          20.5741   69.7665   -5.8500 H       1  UNL1        0.1496
     44 C          15.8505   69.8519   -1.6057 C.3     1  UNL1        0.1693
     45 O          16.0415   68.4573   -1.3587 O.3     1  UNL1       -0.3794
     46 H          15.3689   68.0628   -0.7869 H       1  UNL1        0.2105
@<TRIPOS>BOND
     1    29    30    1
     2    30    41    1
     3    30    31    1
     4    31    34    1
     5    31    32    1
     6    32    35    1
     7    32    33    1
     8    33    36    1
     9    33    44    1
    10    39    40    1
    11    39    42    2
    12    39    41   am
    13    41    43    1
    14    29    28    1
    15    34    37    1
    16    35    38    1
    17    29    36    1
    18    44    45    1
    19    45    46    1
    20    15     6    1
    21    15    16   ar
    22    16    21    2
    23    16    17   ar
    24    17    23    1
    25    17    18   ar
    26    18    19   ar
    27    19    20   ar
    28    15    20   ar
    29    18    22    2
    30     6     7    1
    31     6    11    1
    32     7     9    1
    33     7     8    1
    34     8    13    1
    35     9    10    1
    36     9    12    1
    37    10     5    1
    38    10    11    1
    39    12    14    1
    40     5     4    1
    41     4     1    1
    42     1     2    1
    43     1    24    1
    44     1     3    2
    45    24    25    1
    46    28    25    1
    47    25    26    1
    48    25    27    2
@<TRIPOS>MOLECULE
UD2
 46 48 0 0 0
SMALL
GASTEIGER

@<TRIPOS>ATOM
      1 P          21.5103   71.1589   -0.2586 P.3     1  UNL1        0.2189
      2 O          21.5450   70.3125    1.1103 O.3     1  UNL1       -0.4371
      3 O          22.7819   70.9673   -0.9901 O.2     1  UNL1       -0.5170
      4 O          20.2841   70.6523   -1.1716 O.3     1  UNL1       -0.3112
      5 C          20.3510   70.5898   -2.5975 C.3     1  UNL1        0.1811
      6 C          17.9256   70.6192   -5.2533 C.3     1  UNL1        0.2383
      7 C          17.8323   69.1920   -4.6561 C.3     1  UNL1        0.1895
      8 O          16.5071   68.6724   -4.7811 O.3     1  UNL1       -0.3779
      9 C          18.1916   69.4371   -3.1701 C.3     1  UNL1        0.1713
     10 C          18.9490   70.7786   -3.1821 C.3     1  UNL1        0.1764
     11 O          19.0435   71.2043   -4.5508 O.3     1  UNL1       -0.3308
     12 O          17.0056   69.5388   -2.3803 O.3     1  UNL1       -0.3794
     13 H          16.3983   67.7813   -4.4223 H       1  UNL1        0.2106
     14 H          16.4596   68.7412   -2.3847 H       1  UNL1        0.2105
     15 N          18.1936   70.5599   -6.6919 N.ar    1  UNL1       -0.2551
     16 C          17.1671   70.5337   -7.5605 C.ar    1  UNL1        0.3323
     17 N          17.3841   70.4790   -8.8880 N.ar    1  UNL1       -0.2743
     18 C          18.6435   70.4513   -9.3693 C.ar    1  UNL1        0.2626
     19 C          19.7335   70.4794   -8.4664 C.ar    1  UNL1        0.0795
     20 C          19.4867   70.5386   -7.1408 C.ar    1  UNL1        0.0869
     21 O          16.0263   70.5583   -7.1407 O.2     1  UNL1       -0.2464
     22 O          18.8412   70.4023  -10.5705 O.2     1  UNL1       -0.2670
     23 H          16.6325   70.4595   -9.5003 H       1  UNL1        0.1734
     24 O          21.3160   72.7211    0.0808 O.3     1  UNL1       -0.2703
     25 P          22.3225   73.9721    0.2026 P.3     1  UNL1        0.2208
     26 O          21.5298   75.2422    0.7961 O.3     1  UNL1       -0.4371
     27 O          23.4388   73.6212    1.1077 O.2     1  UNL1       -0.5170
     28 O          22.9055   74.3355   -1.2536 O.3     1  UNL1       -0.2865
     29 C          22.7475   75.6209   -1.8569 C.3     1  UNL1        0.2611
     30 C          23.3081   75.5899   -3.2808 C.3     1  UNL1        0.1582
     31 C          24.8080   75.2843   -3.2231 C.3     1  UNL1        0.1625
     32 C          25.4990   76.3354   -2.3501 C.3     1  UNL1        0.1686
     33 C          24.8538   76.3377   -0.9617 C.3     1  UNL1        0.1760
     34 O          25.3545   75.3259   -4.5433 O.3     1  UNL1       -0.3801
     35 O          25.3517   77.6246   -2.9479 O.3     1  UNL1       -0.3794
     36 O          23.4544   76.5972   -1.0890 O.3     1  UNL1       -0.3263
     37 H          26.3029   75.1404   -4.5820 H       1  UNL1        0.2105
     38 H          25.7659   78.3410   -2.4467 H       1  UNL1        0.2105
     39 C          23.1633   73.3161   -4.1450 C.2     1  UNL1        0.2231
     40 C          22.4621   72.2448   -4.9382 C.3     1  UNL1        0.0946
     41 N          22.6255   74.5484   -4.0527 N.am    1  UNL1       -0.2994
     42 O          24.2131   73.0701   -3.5886 O.2     1  UNL1       -0.2751
     43 H          21.7867   74.7458   -4.4982 H       1  UNL1        0.1496
     44 C          25.4986   77.4263   -0.1017 C.3     1  UNL1        0.1693
     45 O          26.8294   77.6716   -0.5613 O.3     1  UNL1       -0.3794
     46 H          27.2998   78.3521   -0.0607 H       1  UNL1        0.2105
@<TRIPOS>BOND
     1    29    30    1
     2    30    41    1
     3    30    31    1
     4    31    34    1
     5    31    32    1
     6    32    35    1
     7    32    33    1
     8    33    36    1
     9    33    44    1
    10    39    40    1
    11    39    42    2
    12    39    41   am
    13    41    43    1
    14    29    28    1
    15    34    37    1
    16    35    38    1
    17    29    36    1
    18    44    45    1
    19    45    46    1
    20    15     6    1
    21    15    16   ar
    22    16    21    2
    23    16    17   ar
    24    17    23    1
    25    17    18   ar
    26    18    19   ar
    27    19    20   ar
    28    15    20   ar
    29    18    22    2
    30     6     7    1
    31     6    11    1
    32     7     9    1
    33     7     8    1
    34     8    13    1
    35     9    10    1
    36     9    12    1
    37    10     5    1
    38    10    11    1
    39    12    14    1
    40     5     4    1
    41     4     1    1
    42     1     2    1
    43     1    24    1
    44     1     3    2
    45    24    25    1
    46    28    25    1
    47    25    26    1
    48    25    27    2
@<TRIPOS>MOLECULE
UD2
 46 48 0 0 0
SMALL
GASTEIGER

@<TRIPOS>ATOM
      1 P          17.3611   69.7892   -2.6399 P.3     1  UNL1        0.2189
      2 O          16.9715   68.3864   -1.9532 O.3     1  UNL1       -0.4371
      3 O          17.5839   69.5852   -4.0882 O.2     1  UNL1       -0.5170
      4 O          16.1625   70.8431   -2.4245 O.3     1  UNL1       -0.3112
      5 C          15.3674   70.8839   -1.2381 C.3     1  UNL1        0.1811
      6 C          12.7054   68.6330   -0.3524 C.3     1  UNL1        0.2383
      7 C          12.2066   70.0266    0.1073 C.3     1  UNL1        0.1895
      8 O          10.7824   70.1106    0.0270 O.3     1  UNL1       -0.3779
      9 C          12.8746   70.9679   -0.9248 C.3     1  UNL1        0.1713
     10 C          14.0504   70.1426   -1.4814 C.3     1  UNL1        0.1764
     11 O          14.0601   68.8871   -0.7835 O.3     1  UNL1       -0.3308
     12 O          11.9557   71.2968   -1.9680 O.3     1  UNL1       -0.3794
     13 H          10.4222   70.9636    0.3048 H       1  UNL1        0.2106
     14 H          11.1667   71.7659   -1.6648 H       1  UNL1        0.2105
     15 N          12.6880   67.6849    0.7637 N.ar    1  UNL1       -0.2551
     16 C          11.6476   66.8450    0.9084 C.ar    1  UNL1        0.3323
     17 N          11.6051   65.9635    1.9249 N.ar    1  UNL1       -0.2743
     18 C          12.6138   65.9084    2.8182 C.ar    1  UNL1        0.2626
     19 C          13.7157   66.7859    2.6773 C.ar    1  UNL1        0.0795
     20 C          13.7340   67.6567    1.6463 C.ar    1  UNL1        0.0869
     21 O          10.7311   66.8834    0.1104 O.2     1  UNL1       -0.2464
     22 O          12.5768   65.1107    3.7384 O.2     1  UNL1       -0.2670
     23 H          10.8469   65.3659    2.0153 H       1  UNL1        0.1734
     24 O          18.7063   70.3622   -1.9651 O.3     1  UNL1       -0.2703
     25 P          19.7983   71.4602   -2.4066 P.3     1  UNL1        0.2208
     26 O          19.4281   72.8809   -1.7445 O.3     1  UNL1       -0.4371
     27 O          21.1386   71.0362   -1.9459 O.2     1  UNL1       -0.5170
     28 O          19.8009   71.5995   -4.0107 O.3     1  UNL1       -0.2865
     29 C          20.9056   71.2020   -4.8249 C.3     1  UNL1        0.2611
     30 C          21.6874   72.4415   -5.2664 C.3     1  UNL1        0.1582
     31 C          20.7777   73.3314   -6.1191 C.3     1  UNL1        0.1625
     32 C          20.2566   72.5197   -7.3082 C.3     1  UNL1        0.1686
     33 C          19.5297   71.2768   -6.7878 C.3     1  UNL1        0.1760
     34 O          21.5210   74.4550   -6.5968 O.3     1  UNL1       -0.3801
     35 O          21.3538   72.1218   -8.1324 O.3     1  UNL1       -0.3794
     36 O          20.4222   70.5093   -5.9776 O.3     1  UNL1       -0.3263
     37 H          21.0056   75.0628   -7.1447 H       1  UNL1        0.2105
     38 H          21.0967   71.6017   -8.9066 H       1  UNL1        0.2105
     39 C          23.4288   73.1532   -3.7176 C.2     1  UNL1        0.2231
     40 C          23.8875   73.9180   -2.5038 C.3     1  UNL1        0.0946
     41 N          22.1327   73.1855   -4.0855 N.am    1  UNL1       -0.2994
     42 O          24.2263   72.5073   -4.3650 O.2     1  UNL1       -0.2751
     43 H          21.4946   73.7010   -3.5676 H       1  UNL1        0.1496
     44 C          19.0578   70.4294   -7.9709 C.3     1  UNL1        0.1693
     45 O          17.9177   69.6604   -7.5822 O.3     1  UNL1       -0.3794
     46 H          17.5640   69.0978   -8.2847 H       1  UNL1        0.2105
@<TRIPOS>BOND
     1    29    30    1
     2    30    41    1
     3    30    31    1
     4    31    34    1
     5    31    32    1
     6    32    35    1
     7    32    33    1
     8    33    36    1
     9    33    44    1
    10    39    40    1
    11    39    42    2
    12    39    41   am
    13    41    43    1
    14    29    28    1
    15    34    37    1
    16    35    38    1
    17    29    36    1
    18    44    45    1
    19    45    46    1
    20    15     6    1
    21    15    16   ar
    22    16    21    2
    23    16    17   ar
    24    17    23    1
    25    17    18   ar
    26    18    19   ar
    27    19    20   ar
    28    15    20   ar
    29    18    22    2
    30     6     7    1
    31     6    11    1
    32     7     9    1
    33     7     8    1
    34     8    13    1
    35     9    10    1
    36     9    12    1
    37    10     5    1
    38    10    11    1
    39    12    14    1
    40     5     4    1
    41     4     1    1
    42     1     2    1
    43     1    24    1
    44     1     3    2
    45    24    25    1
    46    28    25    1
    47    25    26    1
    48    25    27    2
@<TRIPOS>MOLECULE
UD2
 46 48 0 0 0
SMALL
GASTEIGER

@<TRIPOS>ATOM
      1 P          22.5927   72.0075   -3.0349 P.3     1  UNL1        0.2189
      2 O          22.7288   73.5011   -3.6197 O.3     1  UNL1       -0.4371
      3 O          23.8339   71.2525   -3.3147 O.2     1  UNL1       -0.5170
      4 O          22.3522   72.0742   -1.4439 O.3     1  UNL1       -0.3112
      5 C          22.6935   73.2145   -0.6534 C.3     1  UNL1        0.1811
      6 C          24.3209   72.7374    2.5185 C.3     1  UNL1        0.2383
      7 C          23.7968   71.3305    2.1338 C.3     1  UNL1        0.1895
      8 O          24.6479   70.3086    2.6567 O.3     1  UNL1       -0.3779
      9 C          23.8658   71.3692    0.5875 C.3     1  UNL1        0.1713
     10 C          23.8816   72.8720    0.2488 C.3     1  UNL1        0.1764
     11 O          23.7775   73.5910    1.4880 O.3     1  UNL1       -0.3308
     12 O          25.0620   70.7393    0.1256 O.3     1  UNL1       -0.3794
     13 H          24.3614   69.4103    2.4431 H       1  UNL1        0.2106
     14 H          25.1322   69.8048    0.3629 H       1  UNL1        0.2105
     15 N          23.8171   73.1332    3.8355 N.ar    1  UNL1       -0.2551
     16 C          22.6415   72.6478    4.2728 C.ar    1  UNL1        0.3323
     17 N          22.1543   72.9947    5.4788 N.ar    1  UNL1       -0.2743
     18 C          22.8445   73.8388    6.2724 C.ar    1  UNL1        0.2626
     19 C          24.0839   74.3564    5.8252 C.ar    1  UNL1        0.0795
     20 C          24.5503   73.9884    4.6134 C.ar    1  UNL1        0.0869
     21 O          22.0086   71.8857    3.5679 O.2     1  UNL1       -0.2464
     22 O          22.4048   74.1531    7.3644 O.2     1  UNL1       -0.2670
     23 H          21.3045   72.6365    5.7782 H       1  UNL1        0.1734
     24 O          21.3450   71.2683   -3.7350 O.3     1  UNL1       -0.2703
     25 P          19.7565   71.2644   -3.4713 P.3     1  UNL1        0.2208
     26 O          19.4171   70.2622   -2.2571 O.3     1  UNL1       -0.4371
     27 O          19.3109   72.6309   -3.1214 O.2     1  UNL1       -0.5170
     28 O          18.9930   70.7745   -4.8016 O.3     1  UNL1       -0.2865
     29 C          18.2116   71.6492   -5.6174 C.3     1  UNL1        0.2611
     30 C          16.7981   71.0815   -5.7676 C.3     1  UNL1        0.1582
     31 C          16.8742   69.7268   -6.4784 C.3     1  UNL1        0.1625
     32 C          17.5729   69.9093   -7.8286 C.3     1  UNL1        0.1686
     33 C          18.9569   70.5222   -7.5988 C.3     1  UNL1        0.1760
     34 O          15.5529   69.2233   -6.6886 O.3     1  UNL1       -0.3801
     35 O          16.7961   70.7784   -8.6547 O.3     1  UNL1       -0.3794
     36 O          18.8169   71.7646   -6.9068 O.3     1  UNL1       -0.3263
     37 H          15.5256   68.3657   -7.1346 H       1  UNL1        0.2105
     38 H          17.1805   70.9397   -9.5278 H       1  UNL1        0.2105
     39 C          16.2857   69.7171   -3.8148 C.2     1  UNL1        0.2231
     40 C          15.6691   69.5362   -2.4526 C.3     1  UNL1        0.0946
     41 N          16.1979   70.9063   -4.4426 N.am    1  UNL1       -0.2994
     42 O          16.8618   68.7918   -4.3477 O.2     1  UNL1       -0.2751
     43 H          15.7365   71.6461   -4.0173 H       1  UNL1        0.1496
     44 C          19.6379   70.7631   -8.9474 C.3     1  UNL1        0.1693
     45 O          20.6319   71.7800   -8.8050 O.3     1  UNL1       -0.3794
     46 H          21.1053   71.9853   -9.6228 H       1  UNL1        0.2105
@<TRIPOS>BOND
     1    29    30    1
     2    30    41    1
     3    30    31    1
     4    31    34    1
     5    31    32    1
     6    32    35    1
     7    32    33    1
     8    33    36    1
     9    33    44    1
    10    39    40    1
    11    39    42    2
    12    39    41   am
    13    41    43    1
    14    29    28    1
    15    34    37    1
    16    35    38    1
    17    29    36    1
    18    44    45    1
    19    45    46    1
    20    15     6    1
    21    15    16   ar
    22    16    21    2
    23    16    17   ar
    24    17    23    1
    25    17    18   ar
    26    18    19   ar
    27    19    20   ar
    28    15    20   ar
    29    18    22    2
    30     6     7    1
    31     6    11    1
    32     7     9    1
    33     7     8    1
    34     8    13    1
    35     9    10    1
    36     9    12    1
    37    10     5    1
    38    10    11    1
    39    12    14    1
    40     5     4    1
    41     4     1    1
    42     1     2    1
    43     1    24    1
    44     1     3    2
    45    24    25    1
    46    28    25    1
    47    25    26    1
    48    25    27    2
@<TRIPOS>MOLECULE
UD2
 46 48 0 0 0
SMALL
GASTEIGER

@<TRIPOS>ATOM
      1 P          23.4498   72.3799   -3.0946 P.3     1  UNL1        0.2189
      2 O          24.4070   72.8696   -4.2926 O.3     1  UNL1       -0.4371
      3 O          23.8101   70.9980   -2.7080 O.2     1  UNL1       -0.5170
      4 O          23.6334   73.3569   -1.8276 O.3     1  UNL1       -0.3112
      5 C          22.5648   73.6847   -0.9377 C.3     1  UNL1        0.1811
      6 C          22.6807   72.9157    2.5740 C.3     1  UNL1        0.2383
      7 C          21.1696   72.9444    2.2310 C.3     1  UNL1        0.1895
      8 O          20.4406   72.0393    3.0623 O.3     1  UNL1       -0.3779
      9 C          21.1614   72.4695    0.7573 C.3     1  UNL1        0.1713
     10 C          22.5964   72.7403    0.2665 C.3     1  UNL1        0.1764
     11 O          23.3107   73.3546    1.3508 O.3     1  UNL1       -0.3308
     12 O          20.8622   71.0745    0.6843 O.3     1  UNL1       -0.3794
     13 H          19.4901   72.0217    2.8862 H       1  UNL1        0.2106
     14 H          19.9928   70.8391    1.0353 H       1  UNL1        0.2105
     15 N          22.9788   73.8412    3.6692 N.ar    1  UNL1       -0.2551
     16 C          22.9349   73.4052    4.9407 C.ar    1  UNL1        0.3323
     17 N          23.2040   74.2338    5.9670 N.ar    1  UNL1       -0.2743
     18 C          23.5257   75.5223    5.7326 C.ar    1  UNL1        0.2626
     19 C          23.5766   75.9945    4.3989 C.ar    1  UNL1        0.0795
     20 C          23.3063   75.1406    3.3893 C.ar    1  UNL1        0.0869
     21 O          22.6466   72.2458    5.1669 O.2     1  UNL1       -0.2464
     22 O          23.7699   76.2732    6.6605 O.2     1  UNL1       -0.2670
     23 H          23.1667   73.9034    6.8778 H       1  UNL1        0.1734
     24 O          21.9158   72.4182   -3.5831 O.3     1  UNL1       -0.2703
     25 P          20.7075   71.3541   -3.5574 P.3     1  UNL1        0.2208
     26 O          21.2959   69.8695   -3.7656 O.3     1  UNL1       -0.4371
     27 O          20.0109   71.4297   -2.2545 O.2     1  UNL1       -0.5170
     28 O          19.6700   71.6916   -4.7416 O.3     1  UNL1       -0.2865
     29 C          19.5279   70.8780   -5.9074 C.3     1  UNL1        0.2611
     30 C          19.0771   71.7461   -7.0847 C.3     1  UNL1        0.1582
     31 C          17.7048   72.3484   -6.7678 C.3     1  UNL1        0.1625
     32 C          16.7184   71.2157   -6.4707 C.3     1  UNL1        0.1686
     33 C          17.2602   70.3679   -5.3167 C.3     1  UNL1        0.1760
     34 O          17.2430   73.1013   -7.8918 O.3     1  UNL1       -0.3801
     35 O          16.5647   70.3990   -7.6328 O.3     1  UNL1       -0.3794
     36 O          18.5514   69.8635   -5.6637 O.3     1  UNL1       -0.3263
     37 H          16.3778   73.5126   -7.7604 H       1  UNL1        0.2105
     38 H          15.9526   69.6589   -7.5162 H       1  UNL1        0.2105
     39 C          19.9118   73.9921   -6.6413 C.2     1  UNL1        0.2231
     40 C          20.9087   75.0997   -6.8599 C.3     1  UNL1        0.0946
     41 N          20.0471   72.8231   -7.2981 N.am    1  UNL1       -0.2994
     42 O          18.9860   74.1518   -5.8734 O.2     1  UNL1       -0.2751
     43 H          20.7866   72.6954   -7.9129 H       1  UNL1        0.1496
     44 C          16.3095   69.1987   -5.0529 C.3     1  UNL1        0.1693
     45 O          15.6059   68.8756   -6.2542 O.3     1  UNL1       -0.3794
     46 H          14.9837   68.1413   -6.1608 H       1  UNL1        0.2105
@<TRIPOS>BOND
     1    29    30    1
     2    30    41    1
     3    30    31    1
     4    31    34    1
     5    31    32    1
     6    32    35    1
     7    32    33    1
     8    33    36    1
     9    33    44    1
    10    39    40    1
    11    39    42    2
    12    39    41   am
    13    41    43    1
    14    29    28    1
    15    34    37    1
    16    35    38    1
    17    29    36    1
    18    44    45    1
    19    45    46    1
    20    15     6    1
    21    15    16   ar
    22    16    21    2
    23    16    17   ar
    24    17    23    1
    25    17    18   ar
    26    18    19   ar
    27    19    20   ar
    28    15    20   ar
    29    18    22    2
    30     6     7    1
    31     6    11    1
    32     7     9    1
    33     7     8    1
    34     8    13    1
    35     9    10    1
    36     9    12    1
    37    10     5    1
    38    10    11    1
    39    12    14    1
    40     5     4    1
    41     4     1    1
    42     1     2    1
    43     1    24    1
    44     1     3    2
    45    24    25    1
    46    28    25    1
    47    25    26    1
    48    25    27    2
@<TRIPOS>MOLECULE
UD2
 46 48 0 0 0
SMALL
GASTEIGER

@<TRIPOS>ATOM
      1 P          21.6574   72.3137   -5.3345 P.3     1  UNL1        0.2189
      2 O          22.9116   72.1713   -6.3336 O.3     1  UNL1       -0.4371
      3 O          20.8725   73.5148   -5.6952 O.2     1  UNL1       -0.5170
      4 O          20.7244   71.0066   -5.4550 O.3     1  UNL1       -0.3112
      5 C          20.4694   70.1298   -4.3561 C.3     1  UNL1        0.1811
      6 C          17.0075   71.0153   -4.7659 C.3     1  UNL1        0.2383
      7 C          17.0537   69.4893   -5.0331 C.3     1  UNL1        0.1895
      8 O          15.8282   68.8660   -4.6439 O.3     1  UNL1       -0.3779
      9 C          18.2190   69.0344   -4.1207 C.3     1  UNL1        0.1713
     10 C          19.0291   70.3216   -3.8747 C.3     1  UNL1        0.1764
     11 O          18.3993   71.3732   -4.6236 O.3     1  UNL1       -0.3308
     12 O          17.7149   68.5169   -2.8883 O.3     1  UNL1       -0.3794
     13 H          15.8081   67.9109   -4.7921 H       1  UNL1        0.2106
     14 H          17.1489   67.7398   -2.9893 H       1  UNL1        0.2105
     15 N          16.4066   71.7197   -5.9007 N.ar    1  UNL1       -0.2551
     16 C          16.7618   71.3880   -7.1547 C.ar    1  UNL1        0.3323
     17 N          16.2258   72.0188   -8.2164 N.ar    1  UNL1       -0.2743
     18 C          15.3169   72.9985   -8.0360 C.ar    1  UNL1        0.2626
     19 C          14.9330   73.3572   -6.7214 C.ar    1  UNL1        0.0795
     20 C          15.4834   72.7052   -5.6757 C.ar    1  UNL1        0.0869
     21 O          17.5800   70.5064   -7.3323 O.2     1  UNL1       -0.2464
     22 O          14.8307   73.5699   -8.9960 O.2     1  UNL1       -0.2670
     23 H          16.4939   71.7680   -9.1138 H       1  UNL1        0.1734
     24 O          22.1897   72.4545   -3.8212 O.3     1  UNL1       -0.2703
     25 P          23.6410   72.3462   -3.1320 P.3     1  UNL1        0.2208
     26 O          24.1933   70.8405   -3.2790 O.3     1  UNL1       -0.4371
     27 O          24.5747   73.2806   -3.7980 O.2     1  UNL1       -0.5170
     28 O          23.5237   72.7254   -1.5715 O.3     1  UNL1       -0.2865
     29 C          22.6993   72.0033   -0.6549 C.3     1  UNL1        0.2611
     30 C          21.7587   72.9752    0.0616 C.3     1  UNL1        0.1582
     31 C          22.5909   73.9739    0.8718 C.3     1  UNL1        0.1625
     32 C          23.4838   73.2040    1.8486 C.3     1  UNL1        0.1686
     33 C          24.3582   72.2230    1.0630 C.3     1  UNL1        0.1760
     34 O          21.7191   74.8396    1.6024 O.3     1  UNL1       -0.3801
     35 O          22.6686   72.4825    2.7739 O.3     1  UNL1       -0.3794
     36 O          23.5234   71.3428    0.3078 O.3     1  UNL1       -0.3263
     37 H          22.1796   75.4997    2.1385 H       1  UNL1        0.2105
     38 H          23.1693   71.9698    3.4237 H       1  UNL1        0.2105
     39 C          19.7954   73.1695   -1.3687 C.2     1  UNL1        0.2231
     40 C          18.9681   73.9110   -2.3857 C.3     1  UNL1        0.0946
     41 N          20.9546   73.6970   -0.9279 N.am    1  UNL1       -0.2994
     42 O          19.4185   72.0966   -0.9457 O.2     1  UNL1       -0.2751
     43 H          21.2568   74.5543   -1.2666 H       1  UNL1        0.1496
     44 C          25.2108   71.4074    2.0369 C.3     1  UNL1        0.1693
     45 O          24.6583   70.0964    2.1720 O.3     1  UNL1       -0.3794
     46 H          25.1490   69.5225    2.7761 H       1  UNL1        0.2105
@<TRIPOS>BOND
     1    29    30    1
     2    30    41    1
     3    30    31    1
     4    31    34    1
     5    31    32    1
     6    32    35    1
     7    32    33    1
     8    33    36    1
     9    33    44    1
    10    39    40    1
    11    39    42    2
    12    39    41   am
    13    41    43    1
    14    29    28    1
    15    34    37    1
    16    35    38    1
    17    29    36    1
    18    44    45    1
    19    45    46    1
    20    15     6    1
    21    15    16   ar
    22    16    21    2
    23    16    17   ar
    24    17    23    1
    25    17    18   ar
    26    18    19   ar
    27    19    20   ar
    28    15    20   ar
    29    18    22    2
    30     6     7    1
    31     6    11    1
    32     7     9    1
    33     7     8    1
    34     8    13    1
    35     9    10    1
    36     9    12    1
    37    10     5    1
    38    10    11    1
    39    12    14    1
    40     5     4    1
    41     4     1    1
    42     1     2    1
    43     1    24    1
    44     1     3    2
    45    24    25    1
    46    28    25    1
    47    25    26    1
    48    25    27    2
@<TRIPOS>MOLECULE
UD2
 46 48 0 0 0
SMALL
GASTEIGER

@<TRIPOS>ATOM
      1 P          22.7347   72.6109   -4.8400 P.3     1  UNL1        0.2189
      2 O          22.9847   72.6578   -6.4296 O.3     1  UNL1       -0.4371
      3 O          24.0130   72.3382   -4.1469 O.2     1  UNL1       -0.5170
      4 O          22.1483   74.0276   -4.3472 O.3     1  UNL1       -0.3112
      5 C          22.7728   74.8166   -3.3327 C.3     1  UNL1        0.1811
      6 C          22.1991   73.7486    0.0536 C.3     1  UNL1        0.2383
      7 C          22.8463   75.1501    0.1913 C.3     1  UNL1        0.1895
      8 O          22.3753   75.8164    1.3643 O.3     1  UNL1       -0.3779
      9 C          22.3479   75.8657   -1.0881 C.3     1  UNL1        0.1713
     10 C          21.9633   74.7150   -2.0376 C.3     1  UNL1        0.1764
     11 O          22.2708   73.4839   -1.3643 O.3     1  UNL1       -0.3308
     12 O          21.2079   76.6751   -0.7950 O.3     1  UNL1       -0.3794
     13 H          22.7520   76.6971    1.4947 H       1  UNL1        0.2106
     14 H          21.3789   77.3801   -0.1561 H       1  UNL1        0.2105
     15 N          22.9646   72.7509    0.8044 N.ar    1  UNL1       -0.2551
     16 C          22.3522   71.6411    1.2540 C.ar    1  UNL1        0.3323
     17 N          23.0310   70.7076    1.9469 N.ar    1  UNL1       -0.2743
     18 C          24.3452   70.8726    2.2003 C.ar    1  UNL1        0.2626
     19 C          25.0028   72.0356    1.7321 C.ar    1  UNL1        0.0795
     20 C          24.2985   72.9530    1.0364 C.ar    1  UNL1        0.0869
     21 O          21.1677   71.4790    1.0327 O.2     1  UNL1       -0.2464
     22 O          24.9608   70.0284    2.8270 O.2     1  UNL1       -0.2670
     23 H          22.5738   69.9139    2.2648 H       1  UNL1        0.1734
     24 O          21.6783   71.4450   -4.4968 O.3     1  UNL1       -0.2703
     25 P          20.1551   71.4349   -3.9744 P.3     1  UNL1        0.2208
     26 O          20.0378   70.4807   -2.6822 O.3     1  UNL1       -0.4371
     27 O          19.7492   72.8099   -3.6099 O.2     1  UNL1       -0.5170
     28 O          19.1918   70.8815   -5.1399 O.3     1  UNL1       -0.2865
     29 C          18.1791   71.6785   -5.7567 C.3     1  UNL1        0.2611
     30 C          16.8245   70.9789   -5.6208 C.3     1  UNL1        0.1582
     31 C          16.8757   69.6382   -6.3600 C.3     1  UNL1        0.1625
     32 C          17.2561   69.8876   -7.8219 C.3     1  UNL1        0.1686
     33 C          18.5944   70.6295   -7.8729 C.3     1  UNL1        0.1760
     34 O          15.5924   69.0114   -6.3007 O.3     1  UNL1       -0.3801
     35 O          16.2463   70.6796   -8.4499 O.3     1  UNL1       -0.3794
     36 O          18.4876   71.8523   -7.1412 O.3     1  UNL1       -0.3263
     37 H          15.5521   68.1555   -6.7490 H       1  UNL1        0.2105
     38 H          16.4226   70.8776   -9.3803 H       1  UNL1        0.2105
     39 C          16.8521   69.5664   -3.6355 C.2     1  UNL1        0.2231
     40 C          16.5539   69.3263   -2.1788 C.3     1  UNL1        0.0946
     41 N          16.5339   70.7461   -4.2038 N.am    1  UNL1       -0.2994
     42 O          17.3789   68.6972   -4.2982 O.2     1  UNL1       -0.2751
     43 H          16.1118   71.4409   -3.6746 H       1  UNL1        0.1496
     44 C          18.9526   70.9353   -9.3284 C.3     1  UNL1        0.1693
     45 O          18.2126   70.0715  -10.1935 O.3     1  UNL1       -0.3794
     46 H          18.3899   70.2097  -11.1340 H       1  UNL1        0.2105
@<TRIPOS>BOND
     1    29    30    1
     2    30    41    1
     3    30    31    1
     4    31    34    1
     5    31    32    1
     6    32    35    1
     7    32    33    1
     8    33    36    1
     9    33    44    1
    10    39    40    1
    11    39    42    2
    12    39    41   am
    13    41    43    1
    14    29    28    1
    15    34    37    1
    16    35    38    1
    17    29    36    1
    18    44    45    1
    19    45    46    1
    20    15     6    1
    21    15    16   ar
    22    16    21    2
    23    16    17   ar
    24    17    23    1
    25    17    18   ar
    26    18    19   ar
    27    19    20   ar
    28    15    20   ar
    29    18    22    2
    30     6     7    1
    31     6    11    1
    32     7     9    1
    33     7     8    1
    34     8    13    1
    35     9    10    1
    36     9    12    1
    37    10     5    1
    38    10    11    1
    39    12    14    1
    40     5     4    1
    41     4     1    1
    42     1     2    1
    43     1    24    1
    44     1     3    2
    45    24    25    1
    46    28    25    1
    47    25    26    1
    48    25    27    2
@<TRIPOS>MOLECULE
UD2
 46 48 0 0 0
SMALL
GASTEIGER

@<TRIPOS>ATOM
      1 P          20.0822   74.5395   -1.8756 P.3     1  UNL1        0.2189
      2 O          18.8479   75.0384   -0.9707 O.3     1  UNL1       -0.4371
      3 O          20.5279   75.6428   -2.7547 O.2     1  UNL1       -0.5170
      4 O          21.2988   74.0883   -0.9217 O.3     1  UNL1       -0.3112
      5 C          21.3342   74.3701    0.4785 C.3     1  UNL1        0.1811
      6 C          23.3052   72.0578    2.4035 C.3     1  UNL1        0.2383
      7 C          22.5910   72.9363    3.4619 C.3     1  UNL1        0.1895
      8 O          22.3440   72.1945    4.6579 O.3     1  UNL1       -0.3779
      9 C          21.2636   73.2912    2.7480 C.3     1  UNL1        0.1713
     10 C          21.5692   73.0715    1.2540 C.3     1  UNL1        0.1764
     11 O          22.9487   72.6840    1.1519 O.3     1  UNL1       -0.3308
     12 O          20.2171   72.4193    3.1784 O.3     1  UNL1       -0.3794
     13 H          21.8992   72.7014    5.3506 H       1  UNL1        0.2106
     14 H          20.0230   72.4733    4.1238 H       1  UNL1        0.2105
     15 N          24.7560   72.0888    2.6015 N.ar    1  UNL1       -0.2551
     16 C          25.4843   70.9827    2.3670 C.ar    1  UNL1        0.3323
     17 N          26.8192   70.9825    2.5409 N.ar    1  UNL1       -0.2743
     18 C          27.4501   72.1005    2.9539 C.ar    1  UNL1        0.2626
     19 C          26.6959   73.2723    3.2034 C.ar    1  UNL1        0.0795
     20 C          25.3595   73.2452    3.0168 C.ar    1  UNL1        0.0869
     21 O          24.9288   69.9675    1.9940 O.2     1  UNL1       -0.2464
     22 O          28.6583   72.1017    3.1112 O.2     1  UNL1       -0.2670
     23 H          27.3291   70.1760    2.3685 H       1  UNL1        0.1734
     24 O          19.6160   73.2892   -2.7773 O.3     1  UNL1       -0.2703
     25 P          20.2584   72.5179   -4.0363 P.3     1  UNL1        0.2208
     26 O          21.0181   73.5764   -4.9830 O.3     1  UNL1       -0.4371
     27 O          21.2239   71.5058   -3.5550 O.2     1  UNL1       -0.5170
     28 O          19.0904   71.7908   -4.8730 O.3     1  UNL1       -0.2865
     29 C          19.0593   70.3810   -5.1025 C.3     1  UNL1        0.2611
     30 C          18.1488   70.0771   -6.2947 C.3     1  UNL1        0.1582
     31 C          16.7221   70.5261   -5.9641 C.3     1  UNL1        0.1625
     32 C          16.2597   69.8210   -4.6860 C.3     1  UNL1        0.1686
     33 C          17.2433   70.1349   -3.5555 C.3     1  UNL1        0.1760
     34 O          15.8507   70.1795   -7.0428 O.3     1  UNL1       -0.3801
     35 O          16.2196   68.4100   -4.9068 O.3     1  UNL1       -0.3794
     36 O          18.5558   69.7205   -3.9395 O.3     1  UNL1       -0.3263
     37 H          14.9290   70.4356   -6.9011 H       1  UNL1        0.2105
     38 H          15.9349   67.8986   -4.1365 H       1  UNL1        0.2105
     39 C          18.6381   70.1970   -8.6788 C.2     1  UNL1        0.2231
     40 C          19.1314   70.9409   -9.8920 C.3     1  UNL1        0.0946
     41 N          18.6291   70.8013   -7.4743 N.am    1  UNL1       -0.2994
     42 O          18.2483   69.0530   -8.7855 O.2     1  UNL1       -0.2751
     43 H          18.9415   71.7156   -7.3883 H       1  UNL1        0.1496
     44 C          16.8213   69.3858   -2.2901 C.3     1  UNL1        0.1693
     45 O          15.4296   69.0696   -2.3646 O.3     1  UNL1       -0.3794
     46 H          15.0922   68.5930   -1.5938 H       1  UNL1        0.2105
@<TRIPOS>BOND
     1    29    30    1
     2    30    41    1
     3    30    31    1
     4    31    34    1
     5    31    32    1
     6    32    35    1
     7    32    33    1
     8    33    36    1
     9    33    44    1
    10    39    40    1
    11    39    42    2
    12    39    41   am
    13    41    43    1
    14    29    28    1
    15    34    37    1
    16    35    38    1
    17    29    36    1
    18    44    45    1
    19    45    46    1
    20    15     6    1
    21    15    16   ar
    22    16    21    2
    23    16    17   ar
    24    17    23    1
    25    17    18   ar
    26    18    19   ar
    27    19    20   ar
    28    15    20   ar
    29    18    22    2
    30     6     7    1
    31     6    11    1
    32     7     9    1
    33     7     8    1
    34     8    13    1
    35     9    10    1
    36     9    12    1
    37    10     5    1
    38    10    11    1
    39    12    14    1
    40     5     4    1
    41     4     1    1
    42     1     2    1
    43     1    24    1
    44     1     3    2
    45    24    25    1
    46    28    25    1
    47    25    26    1
    48    25    27    2
