@<TRIPOS>MOLECULE
UDP-glaA
 43 45 0 0 0
SMALL
GASTEIGER

@<TRIPOS>ATOM
      1 P          23.0698   71.6229   -2.4927 P.3     1  UNL1        0.2189
      2 O          23.2742   73.1593   -2.0292 O.3     1  UNL1       -0.4371
      3 O          24.2477   71.0109   -3.1929 O.2     1  UNL1       -0.5170
      4 O          21.6885   71.6499   -3.3335 O.3     1  UNL1       -0.3112
      5 C          21.5203   72.6456   -4.3282 C.3     1  UNL1        0.1811
      6 O          20.6388   70.7625   -5.5329 O.3     1  UNL1       -0.3308
      7 O          21.0742   72.3853   -8.0165 O.3     1  UNL1       -0.3794
      8 O          18.3973   72.6691   -7.5813 O.3     1  UNL1       -0.3779
      9 C          20.6653   72.8138   -6.7177 C.3     1  UNL1        0.1713
     10 C          19.2253   72.4206   -6.4641 C.3     1  UNL1        0.1895
     11 C          21.4110   71.9734   -5.6895 C.3     1  UNL1        0.1764
     12 C          19.3530   70.9398   -6.1497 C.3     1  UNL1        0.2383
     13 H          22.0114   72.6234   -8.1186 H       1  UNL1        0.2105
     14 H          18.4559   73.6188   -7.7836 H       1  UNL1        0.2106
     15 O          16.8268   69.9686   -6.9564 O.2     1  UNL1       -0.2464
     16 O          15.5251   69.2081   -2.6014 O.2     1  UNL1       -0.2670
     17 N          18.3351   70.4810   -5.2482 N.ar    1  UNL1       -0.2551
     18 N          16.1801   69.5910   -4.7872 N.ar    1  UNL1       -0.2743
     19 C          17.1003   70.0135   -5.7556 C.ar    1  UNL1        0.3323
     20 C          18.5651   70.4973   -3.8770 C.ar    1  UNL1        0.0869
     21 C          17.6777   70.0907   -2.9665 C.ar    1  UNL1        0.0795
     22 C          16.3631   69.5887   -3.4131 C.ar    1  UNL1        0.2626
     23 H          15.2851   69.2514   -5.1290 H       1  UNL1        0.1734
     24 O          22.6442   70.8835   -1.1189 O.3     1  UNL1       -0.2703
     25 P          21.6655   71.3531    0.0787 P.3     1  UNL1        0.2208
     26 O          21.4808   70.0072    0.9564 O.3     1  UNL1       -0.4371
     27 O          20.3782   71.9725   -0.3849 O.2     1  UNL1       -0.5170
     28 O          22.5767   72.3177    0.9970 O.3     1  UNL1       -0.2858
     29 O          24.2546   72.2903    2.6654 O.3     1  UNL1       -0.3226
     30 O          21.2676   74.5479    4.4712 O.3     1  UNL1       -0.3794
     31 O          20.5950   72.1752    2.9142 O.3     1  UNL1       -0.3775
     32 O          23.8933   73.8896    5.0213 O.3     1  UNL1       -0.3792
     33 C          22.0842   74.0263    3.4264 C.3     1  UNL1        0.1718
     34 C          21.9171   72.5064    3.3257 C.3     1  UNL1        0.1968
     35 C          23.5461   74.3743    3.7199 C.3     1  UNL1        0.1723
     36 C          22.9162   71.9153    2.3233 C.3     1  UNL1        0.2706
     37 C          24.4504   73.7034    2.6883 C.3     1  UNL1        0.1830
     38 H          21.4069   75.5098    4.5000 H       1  UNL1        0.2105
     39 H          20.5400   71.2065    2.8555 H       1  UNL1        0.2106
     40 H          23.9832   72.9226    4.9769 H       1  UNL1        0.2106
     41 O          26.1170   75.1798    3.4276 O.co2   1  UNL1       -0.5466
     42 O          26.7645   73.0540    2.9190 O.co2   1  UNL1       -0.5466
     43 C          25.8961   73.9095    3.0116 C.2     1  UNL1        0.0799
@<TRIPOS>UNITY_ATOM_ATTR
41 1
charge -1
@<TRIPOS>BOND
     1     1     4    1
     2     1    24    1
     3     1     2    1
     4     1     3    2
     5    25    28    1
     6    25    24    1
     7    25    26    1
     8    25    27    2
     9     6    11    1
    10     6    12    1
    11    29    36    1
    12    29    37    1
    13     7     9    1
    14     7    13    1
    15     8    10    1
    16     8    14    1
    17     4     5    1
    18    28    36    1
    19    30    33    1
    20    30    38    1
    21    31    34    1
    22    31    39    1
    23    32    35    1
    24    32    40    1
    25    41    43   ar
    26    15    19    2
    27    42    43   ar
    28    16    22    2
    29    17    12    1
    30    17    19   ar
    31    17    20   ar
    32    18    19   ar
    33    18    22   ar
    34    18    23    1
    35     9    10    1
    36     9    11    1
    37    10    12    1
    38    11     5    1
    39    33    34    1
    40    33    35    1
    41    34    36    1
    42    35    37    1
    43    37    43    1
    44    20    21   ar
    45    21    22   ar
@<TRIPOS>MOLECULE
UDP-glaA
 43 45 0 0 0
SMALL
GASTEIGER

@<TRIPOS>ATOM
      1 P          21.2344   72.0515   -4.6212 P.3     1  UNL1        0.2189
      2 O          20.5654   73.4236   -4.0851 O.3     1  UNL1       -0.4371
      3 O          22.1223   72.2068   -5.8210 O.2     1  UNL1       -0.5170
      4 O          19.9776   71.0498   -4.8017 O.3     1  UNL1       -0.3112
      5 C          19.2929   70.6062   -3.6426 C.3     1  UNL1        0.1811
      6 O          17.6021   71.4970   -5.0994 O.3     1  UNL1       -0.3308
      7 O          15.6166   70.0862   -3.3504 O.3     1  UNL1       -0.3794
      8 O          15.8145   68.4142   -5.4953 O.3     1  UNL1       -0.3779
      9 C          16.9273   69.6771   -3.7410 C.3     1  UNL1        0.1713
     10 C          16.9278   69.2271   -5.1867 C.3     1  UNL1        0.1895
     11 C          17.8104   70.9168   -3.7928 C.3     1  UNL1        0.1764
     12 C          16.9074   70.5520   -5.9298 C.3     1  UNL1        0.2383
     13 H          15.6732   70.4019   -2.4324 H       1  UNL1        0.2105
     14 H          15.8420   67.6430   -4.9031 H       1  UNL1        0.2106
     15 O          15.5947   70.7779   -8.4201 O.2     1  UNL1       -0.2464
     16 O          19.5342   70.2452  -10.7515 O.2     1  UNL1       -0.2670
     17 N          17.5653   70.4767   -7.2029 N.ar    1  UNL1       -0.2551
     18 N          17.5572   70.5120   -9.5794 N.ar    1  UNL1       -0.2743
     19 C          16.8141   70.6015   -8.3949 C.ar    1  UNL1        0.3323
     20 C          18.9407   70.2809   -7.2619 C.ar    1  UNL1        0.0869
     21 C          19.6347   70.1982   -8.3991 C.ar    1  UNL1        0.0795
     22 C          18.9255   70.3175   -9.6884 C.ar    1  UNL1        0.2626
     23 H          17.0378   70.5983  -10.4488 H       1  UNL1        0.1734
     24 O          21.9750   71.4714   -3.3058 O.3     1  UNL1       -0.2703
     25 P          23.4396   71.7749   -2.6931 P.3     1  UNL1        0.2208
     26 O          23.8026   73.2288   -3.3020 O.3     1  UNL1       -0.4371
     27 O          24.4598   70.7105   -2.9795 O.2     1  UNL1       -0.5170
     28 O          23.1786   72.0431   -1.1234 O.3     1  UNL1       -0.2858
     29 O          24.4400   71.1111    0.6485 O.3     1  UNL1       -0.3226
     30 O          20.7880   71.8687    2.4837 O.3     1  UNL1       -0.3794
     31 O          20.8899   70.7883   -0.2234 O.3     1  UNL1       -0.3775
     32 O          23.3095   71.0767    3.2866 O.3     1  UNL1       -0.3792
     33 C          21.8872   72.0537    1.5961 C.3     1  UNL1        0.1718
     34 C          22.0147   70.8576    0.6467 C.3     1  UNL1        0.1968
     35 C          23.1686   72.2073    2.4201 C.3     1  UNL1        0.1723
     36 C          23.2925   70.9657   -0.1947 C.3     1  UNL1        0.2706
     37 C          24.3755   72.2642    1.4862 C.3     1  UNL1        0.1830
     38 H          20.7471   72.6463    3.0661 H       1  UNL1        0.2105
     39 H          21.0195   70.0241   -0.8100 H       1  UNL1        0.2106
     40 H          23.5751   70.3092    2.7522 H       1  UNL1        0.2106
     41 O          26.1489   71.0288    2.3989 O.co2   1  UNL1       -0.5466
     42 O          26.2020   73.2896    2.6872 O.co2   1  UNL1       -0.5466
     43 C          25.6599   72.2838    2.2524 C.2     1  UNL1        0.0799
@<TRIPOS>UNITY_ATOM_ATTR
41 1
charge -1
@<TRIPOS>BOND
     1     1     4    1
     2     1    24    1
     3     1     2    1
     4     1     3    2
     5    25    28    1
     6    25    24    1
     7    25    26    1
     8    25    27    2
     9     6    11    1
    10     6    12    1
    11    29    36    1
    12    29    37    1
    13     7     9    1
    14     7    13    1
    15     8    10    1
    16     8    14    1
    17     4     5    1
    18    28    36    1
    19    30    33    1
    20    30    38    1
    21    31    34    1
    22    31    39    1
    23    32    35    1
    24    32    40    1
    25    41    43   ar
    26    15    19    2
    27    42    43   ar
    28    16    22    2
    29    17    12    1
    30    17    19   ar
    31    17    20   ar
    32    18    19   ar
    33    18    22   ar
    34    18    23    1
    35     9    10    1
    36     9    11    1
    37    10    12    1
    38    11     5    1
    39    33    34    1
    40    33    35    1
    41    34    36    1
    42    35    37    1
    43    37    43    1
    44    20    21   ar
    45    21    22   ar
@<TRIPOS>MOLECULE
UDP-glaA
 43 45 0 0 0
SMALL
GASTEIGER

@<TRIPOS>ATOM
      1 P          20.9669   72.9822   -4.0122 P.3     1  UNL1        0.2189
      2 O          20.3470   73.7189   -2.7122 O.3     1  UNL1       -0.4371
      3 O          21.5875   73.9002   -5.0243 O.2     1  UNL1       -0.5170
      4 O          19.7543   72.0580   -4.5518 O.3     1  UNL1       -0.3112
      5 C          19.1021   71.1941   -3.6366 C.3     1  UNL1        0.1811
      6 O          17.3487   71.7429   -5.1855 O.3     1  UNL1       -0.3308
      7 O          15.5062   70.2738   -3.3312 O.3     1  UNL1       -0.3794
      8 O          15.9403   68.4479   -5.3094 O.3     1  UNL1       -0.3779
      9 C          16.8631   69.9879   -3.6700 C.3     1  UNL1        0.1713
     10 C          16.9451   69.4110   -5.0675 C.3     1  UNL1        0.1895
     11 C          17.5969   71.3130   -3.8287 C.3     1  UNL1        0.1764
     12 C          16.7855   70.6508   -5.9308 C.3     1  UNL1        0.2383
     13 H          15.5072   70.6765   -2.4461 H       1  UNL1        0.2105
     14 H          16.0455   67.7427   -4.6478 H       1  UNL1        0.2106
     15 O          15.5353   70.8248   -8.4571 O.2     1  UNL1       -0.2464
     16 O          19.5246   70.1991  -10.6780 O.2     1  UNL1       -0.2670
     17 N          17.4732   70.5376   -7.1853 N.ar    1  UNL1       -0.2551
     18 N          17.5226   70.5126   -9.5614 N.ar    1  UNL1       -0.2743
     19 C          16.7521   70.6386   -8.3979 C.ar    1  UNL1        0.3323
     20 C          18.8477   70.3284   -7.2059 C.ar    1  UNL1        0.0869
     21 C          19.5681   70.2108   -8.3234 C.ar    1  UNL1        0.0795
     22 C          18.8912   70.3036   -9.6322 C.ar    1  UNL1        0.2626
     23 H          17.0250   70.5814  -10.4450 H       1  UNL1        0.1734
     24 O          21.9853   71.9045   -3.3667 O.3     1  UNL1       -0.2703
     25 P          23.5599   72.0106   -3.0175 P.3     1  UNL1        0.2208
     26 O          24.1456   72.9226   -4.2180 O.3     1  UNL1       -0.4371
     27 O          24.2456   70.6842   -2.8552 O.2     1  UNL1       -0.5170
     28 O          23.6266   72.9594   -1.7139 O.3     1  UNL1       -0.2858
     29 O          23.2746   71.7352    0.2803 O.3     1  UNL1       -0.3226
     30 O          23.3868   75.6510    1.6705 O.3     1  UNL1       -0.3794
     31 O          21.9995   74.9988   -0.8106 O.3     1  UNL1       -0.3775
     32 O          23.3359   73.1264    2.7901 O.3     1  UNL1       -0.3792
     33 C          23.7040   74.5258    0.8559 C.3     1  UNL1        0.1718
     34 C          22.4536   74.0261    0.1245 C.3     1  UNL1        0.1968
     35 C          24.2701   73.4149    1.7447 C.3     1  UNL1        0.1723
     36 C          22.7457   72.7162   -0.6180 C.3     1  UNL1        0.2706
     37 C          24.4833   72.1515    0.9138 C.3     1  UNL1        0.1830
     38 H          24.2049   75.9313    2.1151 H       1  UNL1        0.2105
     39 H          21.2148   74.6353   -1.2544 H       1  UNL1        0.2106
     40 H          22.5875   72.6365    2.4092 H       1  UNL1        0.2106
     41 O          25.8011   71.4080    2.7067 O.co2   1  UNL1       -0.5466
     42 O          24.5202   69.8503    1.6437 O.co2   1  UNL1       -0.5466
     43 C          24.9133   71.0012    1.7675 C.2     1  UNL1        0.0799
@<TRIPOS>UNITY_ATOM_ATTR
41 1
charge -1
@<TRIPOS>BOND
     1     1     4    1
     2     1    24    1
     3     1     2    1
     4     1     3    2
     5    25    28    1
     6    25    24    1
     7    25    26    1
     8    25    27    2
     9     6    11    1
    10     6    12    1
    11    29    36    1
    12    29    37    1
    13     7     9    1
    14     7    13    1
    15     8    10    1
    16     8    14    1
    17     4     5    1
    18    28    36    1
    19    30    33    1
    20    30    38    1
    21    31    34    1
    22    31    39    1
    23    32    35    1
    24    32    40    1
    25    41    43   ar
    26    15    19    2
    27    42    43   ar
    28    16    22    2
    29    17    12    1
    30    17    19   ar
    31    17    20   ar
    32    18    19   ar
    33    18    22   ar
    34    18    23    1
    35     9    10    1
    36     9    11    1
    37    10    12    1
    38    11     5    1
    39    33    34    1
    40    33    35    1
    41    34    36    1
    42    35    37    1
    43    37    43    1
    44    20    21   ar
    45    21    22   ar
@<TRIPOS>MOLECULE
UDP-glaA
 43 45 0 0 0
SMALL
GASTEIGER

@<TRIPOS>ATOM
      1 P          23.4492   72.0670   -3.3528 P.3     1  UNL1        0.2189
      2 O          24.1938   72.9504   -4.4853 O.3     1  UNL1       -0.4371
      3 O          24.1179   70.7641   -3.0253 O.2     1  UNL1       -0.5170
      4 O          21.9244   71.9611   -3.8813 O.3     1  UNL1       -0.3112
      5 C          21.2014   70.7682   -3.6294 C.3     1  UNL1        0.1811
      6 O          19.1525   71.6954   -4.4759 O.3     1  UNL1       -0.3308
      7 O          17.8078   70.3655   -2.1490 O.3     1  UNL1       -0.3794
      8 O          17.2542   68.6655   -4.2080 O.3     1  UNL1       -0.3779
      9 C          18.9091   69.9118   -2.9358 C.3     1  UNL1        0.1713
     10 C          18.4280   69.4467   -4.2940 C.3     1  UNL1        0.1895
     11 C          19.7593   71.1230   -3.2963 C.3     1  UNL1        0.1764
     12 C          18.2014   70.7637   -5.0167 C.3     1  UNL1        0.2383
     13 H          18.1679   70.6890   -1.3057 H       1  UNL1        0.2105
     14 H          17.4528   67.9001   -3.6414 H       1  UNL1        0.2106
     15 O          16.2544   69.8494   -6.8466 O.2     1  UNL1       -0.2464
     16 O          19.1049   70.3847  -10.4280 O.2     1  UNL1       -0.2670
     17 N          18.4074   70.6545   -6.4326 N.ar    1  UNL1       -0.2551
     18 N          17.6753   70.1161   -8.6287 N.ar    1  UNL1       -0.2743
     19 C          17.3648   70.1830   -7.2641 C.ar    1  UNL1        0.3323
     20 C          19.6325   71.0126   -6.9844 C.ar    1  UNL1        0.0869
     21 C          19.9128   70.9436   -8.2876 C.ar    1  UNL1        0.0795
     22 C          18.8788   70.4606   -9.2242 C.ar    1  UNL1        0.2626
     23 H          16.9409   69.7793   -9.2454 H       1  UNL1        0.1734
     24 O          23.3322   73.0951   -2.1101 O.3     1  UNL1       -0.2703
     25 P          23.0974   72.8299   -0.5330 P.3     1  UNL1        0.2208
     26 O          21.5163   72.5009   -0.4435 O.3     1  UNL1       -0.4371
     27 O          23.5478   73.9546    0.3546 O.2     1  UNL1       -0.5170
     28 O          23.8251   71.4192   -0.2428 O.3     1  UNL1       -0.2858
     29 O          24.7081   71.6414    1.9413 O.3     1  UNL1       -0.3226
     30 O          20.6436   72.2331    2.5807 O.3     1  UNL1       -0.3794
     31 O          21.5688   70.1682    0.7405 O.3     1  UNL1       -0.3775
     32 O          22.9613   72.4616    4.0660 O.3     1  UNL1       -0.3792
     33 C          21.8975   72.2758    1.9052 C.3     1  UNL1        0.1718
     34 C          22.4174   70.8565    1.6532 C.3     1  UNL1        0.1968
     35 C          22.8968   73.0548    2.7649 C.3     1  UNL1        0.1723
     36 C          23.8409   70.8926    1.0833 C.3     1  UNL1        0.2706
     37 C          24.2825   72.9906    2.1264 C.3     1  UNL1        0.1830
     38 H          20.3546   73.1509    2.7211 H       1  UNL1        0.2105
     39 H          21.9420   69.2810    0.6049 H       1  UNL1        0.2106
     40 H          23.4521   71.6249    4.0000 H       1  UNL1        0.2106
     41 O          24.7838   74.6594    3.6972 O.co2   1  UNL1       -0.5466
     42 O          26.4838   73.2727    3.0775 O.co2   1  UNL1       -0.5466
     43 C          25.3169   73.6284    2.9982 C.2     1  UNL1        0.0799
@<TRIPOS>UNITY_ATOM_ATTR
41 1
charge -1
@<TRIPOS>BOND
     1     1     4    1
     2     1    24    1
     3     1     2    1
     4     1     3    2
     5    25    28    1
     6    25    24    1
     7    25    26    1
     8    25    27    2
     9     6    11    1
    10     6    12    1
    11    29    36    1
    12    29    37    1
    13     7     9    1
    14     7    13    1
    15     8    10    1
    16     8    14    1
    17     4     5    1
    18    28    36    1
    19    30    33    1
    20    30    38    1
    21    31    34    1
    22    31    39    1
    23    32    35    1
    24    32    40    1
    25    41    43   ar
    26    15    19    2
    27    42    43   ar
    28    16    22    2
    29    17    12    1
    30    17    19   ar
    31    17    20   ar
    32    18    19   ar
    33    18    22   ar
    34    18    23    1
    35     9    10    1
    36     9    11    1
    37    10    12    1
    38    11     5    1
    39    33    34    1
    40    33    35    1
    41    34    36    1
    42    35    37    1
    43    37    43    1
    44    20    21   ar
    45    21    22   ar
@<TRIPOS>MOLECULE
UDP-glaA
 43 45 0 0 0
SMALL
GASTEIGER

@<TRIPOS>ATOM
      1 P          23.2469   72.0766   -3.0612 P.3     1  UNL1        0.2189
      2 O          24.1562   72.4580   -4.3438 O.3     1  UNL1       -0.4371
      3 O          23.8486   71.0564   -2.1397 O.2     1  UNL1       -0.5170
      4 O          21.8138   71.6871   -3.7014 O.3     1  UNL1       -0.3112
      5 C          21.0906   72.6854   -4.4011 C.3     1  UNL1        0.1811
      6 O          18.8309   72.6925   -5.2185 O.3     1  UNL1       -0.3308
      7 O          18.0728   71.4736   -2.5858 O.3     1  UNL1       -0.3794
      8 O          18.0945   69.3181   -4.2559 O.3     1  UNL1       -0.3779
      9 C          19.2465   71.2679   -3.3718 C.3     1  UNL1        0.1713
     10 C          18.9266   70.4127   -4.5796 C.3     1  UNL1        0.1895
     11 C          19.6214   72.5976   -4.0130 C.3     1  UNL1        0.1764
     12 C          18.2466   71.4104   -5.5017 C.3     1  UNL1        0.2383
     13 H          18.3172   72.0570   -1.8473 H       1  UNL1        0.2105
     14 H          18.5554   68.7893   -3.5820 H       1  UNL1        0.2106
     15 O          16.2518   70.3769   -7.2128 O.2     1  UNL1       -0.2464
     16 O          19.1362   70.2593  -10.8052 O.2     1  UNL1       -0.2670
     17 N          18.4485   71.1012   -6.8884 N.ar    1  UNL1       -0.2551
     18 N          17.6895   70.3186   -9.0004 N.ar    1  UNL1       -0.2743
     19 C          17.3810   70.5854   -7.6600 C.ar    1  UNL1        0.3323
     20 C          19.6939   71.3092   -7.4708 C.ar    1  UNL1        0.0869
     21 C          19.9720   71.0502   -8.7504 C.ar    1  UNL1        0.0795
     22 C          18.9127   70.5086   -9.6245 C.ar    1  UNL1        0.2626
     23 H          16.9374   69.9465   -9.5740 H       1  UNL1        0.1734
     24 O          22.9611   73.5148   -2.3791 O.3     1  UNL1       -0.2703
     25 P          23.9593   74.7330   -2.0157 P.3     1  UNL1        0.2208
     26 O          22.9790   76.0192   -1.9839 O.3     1  UNL1       -0.4371
     27 O          25.1301   74.8687   -2.9467 O.2     1  UNL1       -0.5170
     28 O          24.3601   74.4867   -0.4721 O.3     1  UNL1       -0.2858
     29 O          23.3120   72.8097    0.8273 O.3     1  UNL1       -0.3226
     30 O          24.8803   75.3200    3.7459 O.3     1  UNL1       -0.3794
     31 O          23.6345   76.4274    1.3527 O.3     1  UNL1       -0.3775
     32 O          23.6632   72.8413    3.6758 O.3     1  UNL1       -0.3792
     33 C          24.7917   74.6269    2.5041 C.3     1  UNL1        0.1718
     34 C          23.5371   75.0604    1.7384 C.3     1  UNL1        0.1968
     35 C          24.7434   73.1215    2.7794 C.3     1  UNL1        0.1723
     36 C          23.3412   74.1992    0.4845 C.3     1  UNL1        0.2706
     37 C          24.5055   72.3681    1.4726 C.3     1  UNL1        0.1830
     38 H          25.6857   75.0132    4.1962 H       1  UNL1        0.2105
     39 H          22.8247   76.6529    0.8646 H       1  UNL1        0.2106
     40 H          22.8269   72.9236    3.1870 H       1  UNL1        0.2106
     41 O          23.2582   70.4346    1.0149 O.co2   1  UNL1       -0.5466
     42 O          25.0312   70.2152    2.4310 O.co2   1  UNL1       -0.5466
     43 C          24.3218   70.9031    1.7111 C.2     1  UNL1        0.0799
@<TRIPOS>UNITY_ATOM_ATTR
41 1
charge -1
@<TRIPOS>BOND
     1     1     4    1
     2     1    24    1
     3     1     2    1
     4     1     3    2
     5    25    28    1
     6    25    24    1
     7    25    26    1
     8    25    27    2
     9     6    11    1
    10     6    12    1
    11    29    36    1
    12    29    37    1
    13     7     9    1
    14     7    13    1
    15     8    10    1
    16     8    14    1
    17     4     5    1
    18    28    36    1
    19    30    33    1
    20    30    38    1
    21    31    34    1
    22    31    39    1
    23    32    35    1
    24    32    40    1
    25    41    43   ar
    26    15    19    2
    27    42    43   ar
    28    16    22    2
    29    17    12    1
    30    17    19   ar
    31    17    20   ar
    32    18    19   ar
    33    18    22   ar
    34    18    23    1
    35     9    10    1
    36     9    11    1
    37    10    12    1
    38    11     5    1
    39    33    34    1
    40    33    35    1
    41    34    36    1
    42    35    37    1
    43    37    43    1
    44    20    21   ar
    45    21    22   ar
@<TRIPOS>MOLECULE
UDP-glaA
 43 45 0 0 0
SMALL
GASTEIGER

@<TRIPOS>ATOM
      1 P          23.3444   71.9156   -3.4792 P.3     1  UNL1        0.2189
      2 O          24.1132   72.9662   -4.4398 O.3     1  UNL1       -0.4371
      3 O          24.2097   70.8318   -2.9060 O.2     1  UNL1       -0.5170
      4 O          22.0913   71.4166   -4.3715 O.3     1  UNL1       -0.3112
      5 C          21.5406   72.3091   -5.3252 C.3     1  UNL1        0.1811
      6 O          20.4541   70.3673   -6.2324 O.3     1  UNL1       -0.3308
      7 O          20.5466   71.7808   -8.8753 O.3     1  UNL1       -0.3794
      8 O          17.9700   72.1795   -8.0766 O.3     1  UNL1       -0.3779
      9 C          20.3435   72.3200   -7.5693 C.3     1  UNL1        0.1713
     10 C          18.9499   71.9919   -7.0765 C.3     1  UNL1        0.1895
     11 C          21.2175   71.5383   -6.5973 C.3     1  UNL1        0.1764
     12 C          19.0945   70.5363   -6.6664 C.3     1  UNL1        0.2383
     13 H          21.4627   71.9814   -9.1324 H       1  UNL1        0.2105
     14 H          18.0161   73.1085   -8.3610 H       1  UNL1        0.2106
     15 O          16.3994   69.7627   -7.0026 O.2     1  UNL1       -0.2464
     16 O          15.8070   69.1910   -2.4682 O.2     1  UNL1       -0.2670
     17 N          18.2133   70.1795   -5.5914 N.ar    1  UNL1       -0.2551
     18 N          16.1060   69.4790   -4.7443 N.ar    1  UNL1       -0.2743
     19 C          16.8771   69.8065   -5.8674 C.ar    1  UNL1        0.3323
     20 C          18.6752   70.2014   -4.2801 C.ar    1  UNL1        0.0869
     21 C          17.9277   69.8860   -3.2201 C.ar    1  UNL1        0.0795
     22 C          16.5209   69.4864   -3.4216 C.ar    1  UNL1        0.2626
     23 H          15.1419   69.2084   -4.9188 H       1  UNL1        0.1734
     24 O          22.6477   72.8740   -2.3786 O.3     1  UNL1       -0.2703
     25 P          23.1939   74.1961   -1.6262 P.3     1  UNL1        0.2208
     26 O          21.8669   75.1069   -1.4660 O.3     1  UNL1       -0.4371
     27 O          24.3329   74.8782   -2.3285 O.2     1  UNL1       -0.5170
     28 O          23.5341   73.7029   -0.1279 O.3     1  UNL1       -0.2858
     29 O          24.6911   71.8865    0.8527 O.3     1  UNL1       -0.3226
     30 O          21.3104   72.1648    3.2554 O.3     1  UNL1       -0.3794
     31 O          21.1040   72.4882    0.3642 O.3     1  UNL1       -0.3775
     32 O          23.6889   70.7608    3.2955 O.3     1  UNL1       -0.3792
     33 C          22.3850   72.5993    2.4266 C.3     1  UNL1        0.1718
     34 C          22.2609   71.9885    1.0267 C.3     1  UNL1        0.1968
     35 C          23.7085   72.1740    3.0683 C.3     1  UNL1        0.1723
     36 C          23.4998   72.3104    0.1818 C.3     1  UNL1        0.2706
     37 C          24.8648   72.5043    2.1270 C.3     1  UNL1        0.1830
     38 H          21.4308   72.5729    4.1298 H       1  UNL1        0.2105
     39 H          21.0729   72.0821   -0.5183 H       1  UNL1        0.2106
     40 H          23.7934   70.3091    2.4409 H       1  UNL1        0.2106
     41 O          26.8450   72.9718    3.2948 O.co2   1  UNL1       -0.5466
     42 O          26.5660   70.8404    2.5357 O.co2   1  UNL1       -0.5466
     43 C          26.1654   71.9891    2.6560 C.2     1  UNL1        0.0799
@<TRIPOS>UNITY_ATOM_ATTR
41 1
charge -1
@<TRIPOS>BOND
     1     1     4    1
     2     1    24    1
     3     1     2    1
     4     1     3    2
     5    25    28    1
     6    25    24    1
     7    25    26    1
     8    25    27    2
     9     6    11    1
    10     6    12    1
    11    29    36    1
    12    29    37    1
    13     7     9    1
    14     7    13    1
    15     8    10    1
    16     8    14    1
    17     4     5    1
    18    28    36    1
    19    30    33    1
    20    30    38    1
    21    31    34    1
    22    31    39    1
    23    32    35    1
    24    32    40    1
    25    41    43   ar
    26    15    19    2
    27    42    43   ar
    28    16    22    2
    29    17    12    1
    30    17    19   ar
    31    17    20   ar
    32    18    19   ar
    33    18    22   ar
    34    18    23    1
    35     9    10    1
    36     9    11    1
    37    10    12    1
    38    11     5    1
    39    33    34    1
    40    33    35    1
    41    34    36    1
    42    35    37    1
    43    37    43    1
    44    20    21   ar
    45    21    22   ar
@<TRIPOS>MOLECULE
UDP-glaA
 43 45 0 0 0
SMALL
GASTEIGER

@<TRIPOS>ATOM
      1 P          23.1184   71.6741   -2.5802 P.3     1  UNL1        0.2189
      2 O          23.3482   73.2462   -2.2753 O.3     1  UNL1       -0.4371
      3 O          24.2912   70.9713   -3.1990 O.2     1  UNL1       -0.5170
      4 O          21.7467   71.6396   -3.4362 O.3     1  UNL1       -0.3112
      5 C          21.5447   72.6276   -4.4324 C.3     1  UNL1        0.1811
      6 O          20.6489   70.7375   -5.6153 O.3     1  UNL1       -0.3308
      7 O          21.0574   72.3444   -8.1138 O.3     1  UNL1       -0.3794
      8 O          18.3856   72.6325   -7.6506 O.3     1  UNL1       -0.3779
      9 C          20.6632   72.7813   -6.8132 C.3     1  UNL1        0.1713
     10 C          19.2259   72.3906   -6.5411 C.3     1  UNL1        0.1895
     11 C          21.4199   71.9470   -5.7881 C.3     1  UNL1        0.1764
     12 C          19.3564   70.9117   -6.2189 C.3     1  UNL1        0.2383
     13 H          21.9935   72.5814   -8.2278 H       1  UNL1        0.2105
     14 H          18.4425   73.5808   -7.8595 H       1  UNL1        0.2106
     15 O          16.8167   69.9474   -6.9906 O.2     1  UNL1       -0.2464
     16 O          15.5676   69.2040   -2.6173 O.2     1  UNL1       -0.2670
     17 N          18.3484   70.4591   -5.3032 N.ar    1  UNL1       -0.2551
     18 N          16.1962   69.5783   -4.8123 N.ar    1  UNL1       -0.2743
     19 C          17.1056   69.9947   -5.7935 C.ar    1  UNL1        0.3323
     20 C          18.5958   70.4784   -3.9350 C.ar    1  UNL1        0.0869
     21 C          17.7186   70.0776   -3.0122 C.ar    1  UNL1        0.0795
     22 C          16.3966   69.5792   -3.4406 C.ar    1  UNL1        0.2626
     23 H          15.2957   69.2410   -5.1418 H       1  UNL1        0.1734
     24 O          22.6642   71.0888   -1.1428 O.3     1  UNL1       -0.2703
     25 P          21.7171   71.7170    0.0066 P.3     1  UNL1        0.2208
     26 O          21.1013   70.4107    0.7349 O.3     1  UNL1       -0.4371
     27 O          20.6884   72.6850   -0.5039 O.2     1  UNL1       -0.5170
     28 O          22.7423   72.3409    1.0854 O.3     1  UNL1       -0.2858
     29 O          22.0484   73.8859    2.7379 O.3     1  UNL1       -0.3226
     30 O          26.1413   74.5881    2.5527 O.3     1  UNL1       -0.3794
     31 O          24.6041   74.1344    0.1161 O.3     1  UNL1       -0.3775
     32 O          24.0423   75.3779    4.1652 O.3     1  UNL1       -0.3792
     33 C          24.9207   73.8542    2.5094 C.3     1  UNL1        0.1718
     34 C          24.0184   74.3835    1.3895 C.3     1  UNL1        0.1968
     35 C          24.2132   73.9898    3.8604 C.3     1  UNL1        0.1723
     36 C          22.6376   73.7180    1.4443 C.3     1  UNL1        0.2706
     37 C          22.8380   73.3297    3.7881 C.3     1  UNL1        0.1830
     38 H          26.6786   74.2215    3.2756 H       1  UNL1        0.2105
     39 H          23.9947   74.4771   -0.5592 H       1  UNL1        0.2106
     40 H          23.3370   75.7339    3.5988 H       1  UNL1        0.2106
     41 O          22.7696   73.1488    6.1261 O.co2   1  UNL1       -0.5466
     42 O          20.9349   74.0294    5.0989 O.co2   1  UNL1       -0.5466
     43 C          22.0583   73.5503    5.0452 C.2     1  UNL1        0.0799
@<TRIPOS>UNITY_ATOM_ATTR
41 1
charge -1
@<TRIPOS>BOND
     1     1     4    1
     2     1    24    1
     3     1     2    1
     4     1     3    2
     5    25    28    1
     6    25    24    1
     7    25    26    1
     8    25    27    2
     9     6    11    1
    10     6    12    1
    11    29    36    1
    12    29    37    1
    13     7     9    1
    14     7    13    1
    15     8    10    1
    16     8    14    1
    17     4     5    1
    18    28    36    1
    19    30    33    1
    20    30    38    1
    21    31    34    1
    22    31    39    1
    23    32    35    1
    24    32    40    1
    25    41    43   ar
    26    15    19    2
    27    42    43   ar
    28    16    22    2
    29    17    12    1
    30    17    19   ar
    31    17    20   ar
    32    18    19   ar
    33    18    22   ar
    34    18    23    1
    35     9    10    1
    36     9    11    1
    37    10    12    1
    38    11     5    1
    39    33    34    1
    40    33    35    1
    41    34    36    1
    42    35    37    1
    43    37    43    1
    44    20    21   ar
    45    21    22   ar
@<TRIPOS>MOLECULE
UDP-glaA
 43 45 0 0 0
SMALL
GASTEIGER

@<TRIPOS>ATOM
      1 P          21.9148   72.4678   -5.7634 P.3     1  UNL1        0.2189
      2 O          21.2680   73.8881   -5.3369 O.3     1  UNL1       -0.4371
      3 O          23.1064   72.5619   -6.6708 O.2     1  UNL1       -0.5170
      4 O          20.6595   71.6244   -6.3367 O.3     1  UNL1       -0.3112
      5 C          20.1233   71.9818   -7.5992 C.3     1  UNL1        0.1811
      6 O          18.9211   69.9467   -7.1661 O.3     1  UNL1       -0.3308
      7 O          18.1345   70.0157  -10.0588 O.3     1  UNL1       -0.3794
      8 O          15.9013   70.9611   -8.8118 O.3     1  UNL1       -0.3779
      9 C          18.3060   71.0975   -9.1434 C.3     1  UNL1        0.1713
     10 C          17.1461   71.1521   -8.1717 C.3     1  UNL1        0.1895
     11 C          19.4737   70.7568   -8.2270 C.3     1  UNL1        0.1764
     12 C          17.4868   70.0266   -7.2098 C.3     1  UNL1        0.2383
     13 H          18.9179   69.9963  -10.6346 H       1  UNL1        0.2105
     14 H          15.8088   71.6568   -9.4853 H       1  UNL1        0.2106
     15 O          16.3087   68.0592   -5.5615 O.2     1  UNL1       -0.2464
     16 O          15.6214   71.0730   -2.1434 O.2     1  UNL1       -0.2670
     17 N          16.9919   70.2692   -5.8848 N.ar    1  UNL1       -0.2551
     18 N          15.9668   69.5614   -3.8607 N.ar    1  UNL1       -0.2743
     19 C          16.4173   69.2124   -5.1407 C.ar    1  UNL1        0.3323
     20 C          17.0783   71.5435   -5.3351 C.ar    1  UNL1        0.0869
     21 C          16.6446   71.8602   -4.1130 C.ar    1  UNL1        0.0795
     22 C          16.0306   70.8144   -3.2711 C.ar    1  UNL1        0.2626
     23 H          15.5494   68.8176   -3.3079 H       1  UNL1        0.1734
     24 O          22.2072   71.7605   -4.3388 O.3     1  UNL1       -0.2703
     25 P          23.4384   71.9276   -3.3050 P.3     1  UNL1        0.2208
     26 O          24.2161   73.2319   -3.8618 O.3     1  UNL1       -0.4371
     27 O          24.2987   70.7040   -3.1688 O.2     1  UNL1       -0.5170
     28 O          22.7531   72.4173   -1.9286 O.3     1  UNL1       -0.2858
     29 O          22.8135   70.9002   -0.1136 O.3     1  UNL1       -0.3226
     30 O          20.0508   73.7163    1.1966 O.3     1  UNL1       -0.3794
     31 O          20.0434   72.8120   -1.5762 O.3     1  UNL1       -0.3775
     32 O          21.3725   71.5477    2.2828 O.3     1  UNL1       -0.3792
     33 C          21.1972   73.1980    0.5277 C.3     1  UNL1        0.1718
     34 C          20.7793   72.1770   -0.5360 C.3     1  UNL1        0.1968
     35 C          22.1144   72.5347    1.5588 C.3     1  UNL1        0.1723
     36 C          22.0091   71.4887   -1.1411 C.3     1  UNL1        0.2706
     37 C          23.2777   71.8494    0.8452 C.3     1  UNL1        0.1830
     38 H          20.3623   74.3547    1.8606 H       1  UNL1        0.2105
     39 H          19.8096   72.1303   -2.2285 H       1  UNL1        0.2106
     40 H          21.2317   70.7802    1.7030 H       1  UNL1        0.2106
     41 O          25.1834   70.5182    1.1618 O.co2   1  UNL1       -0.5466
     42 O          23.9130   70.9667    3.0009 O.co2   1  UNL1       -0.5466
     43 C          24.1293   71.0783    1.8029 C.2     1  UNL1        0.0799
@<TRIPOS>UNITY_ATOM_ATTR
41 1
charge -1
@<TRIPOS>BOND
     1     1     4    1
     2     1    24    1
     3     1     2    1
     4     1     3    2
     5    25    28    1
     6    25    24    1
     7    25    26    1
     8    25    27    2
     9     6    11    1
    10     6    12    1
    11    29    36    1
    12    29    37    1
    13     7     9    1
    14     7    13    1
    15     8    10    1
    16     8    14    1
    17     4     5    1
    18    28    36    1
    19    30    33    1
    20    30    38    1
    21    31    34    1
    22    31    39    1
    23    32    35    1
    24    32    40    1
    25    41    43   ar
    26    15    19    2
    27    42    43   ar
    28    16    22    2
    29    17    12    1
    30    17    19   ar
    31    17    20   ar
    32    18    19   ar
    33    18    22   ar
    34    18    23    1
    35     9    10    1
    36     9    11    1
    37    10    12    1
    38    11     5    1
    39    33    34    1
    40    33    35    1
    41    34    36    1
    42    35    37    1
    43    37    43    1
    44    20    21   ar
    45    21    22   ar
@<TRIPOS>MOLECULE
UDP-glaA
 43 45 0 0 0
SMALL
GASTEIGER

@<TRIPOS>ATOM
      1 P          20.6180   71.8164   -0.9446 P.3     1  UNL1        0.2189
      2 O          19.7634   70.5249   -1.4129 O.3     1  UNL1       -0.4371
      3 O          19.9831   72.6361    0.1403 O.2     1  UNL1       -0.5170
      4 O          20.9301   72.5987   -2.3253 O.3     1  UNL1       -0.3112
      5 C          20.2830   72.1663   -3.5100 C.3     1  UNL1        0.1811
      6 O          20.7158   70.7860   -5.4288 O.3     1  UNL1       -0.3308
      7 O          23.1570   72.4735   -5.8587 O.3     1  UNL1       -0.3794
      8 O          21.3971   73.4993   -7.6716 O.3     1  UNL1       -0.3779
      9 C          21.8691   72.8548   -5.3754 C.3     1  UNL1        0.1713
     10 C          20.8699   72.8876   -6.5125 C.3     1  UNL1        0.1895
     11 C          21.3349   71.7177   -4.5144 C.3     1  UNL1        0.1764
     12 C          20.5732   71.4114   -6.7148 C.3     1  UNL1        0.2383
     13 H          23.7527   72.4282   -5.0915 H       1  UNL1        0.2105
     14 H          21.6620   74.4037   -7.4305 H       1  UNL1        0.2106
     15 O          19.9149   69.5657   -8.7484 O.2     1  UNL1       -0.2464
     16 O          15.4340   70.6140   -8.5022 O.2     1  UNL1       -0.2670
     17 N          19.2429   71.1813   -7.2012 N.ar    1  UNL1       -0.2551
     18 N          17.6841   70.0893   -8.6248 N.ar    1  UNL1       -0.2743
     19 C          19.0197   70.2325   -8.2264 C.ar    1  UNL1        0.3323
     20 C          18.1756   71.8920   -6.6635 C.ar    1  UNL1        0.0869
     21 C          16.9078   71.7437   -7.0539 C.ar    1  UNL1        0.0795
     22 C          16.5892   70.7736   -8.1202 C.ar    1  UNL1        0.2626
     23 H          17.5000   69.4131   -9.3610 H       1  UNL1        0.1734
     24 O          22.0528   71.1798   -0.5557 O.3     1  UNL1       -0.2703
     25 P          23.3724   71.8547    0.0891 P.3     1  UNL1        0.2208
     26 O          23.7797   72.9834   -0.9954 O.3     1  UNL1       -0.4371
     27 O          24.4686   70.8795    0.4105 O.2     1  UNL1       -0.5170
     28 O          22.8270   72.6869    1.3595 O.3     1  UNL1       -0.2858
     29 O          24.2939   72.7178    3.2160 O.3     1  UNL1       -0.3226
     30 O          20.8259   74.3560    4.8188 O.3     1  UNL1       -0.3794
     31 O          20.6859   72.0843    2.9951 O.3     1  UNL1       -0.3775
     32 O          23.4416   74.0066    5.6349 O.3     1  UNL1       -0.3792
     33 C          21.8215   74.0583    3.8439 C.3     1  UNL1        0.1718
     34 C          21.8910   72.5478    3.5950 C.3     1  UNL1        0.1968
     35 C          23.1747   74.5692    4.3461 C.3     1  UNL1        0.1723
     36 C          23.0714   72.2019    2.6790 C.3     1  UNL1        0.2706
     37 C          24.2770   74.1348    3.3825 C.3     1  UNL1        0.1830
     38 H          20.8189   75.3201    4.9459 H       1  UNL1        0.2105
     39 H          20.7801   71.1280    2.8484 H       1  UNL1        0.2106
     40 H          23.6765   73.0702    5.5206 H       1  UNL1        0.2106
     41 O          26.4160   74.9684    2.8992 O.co2   1  UNL1       -0.5466
     42 O          25.9890   74.3979    5.0646 O.co2   1  UNL1       -0.5466
     43 C          25.6317   74.5006    3.9001 C.2     1  UNL1        0.0799
@<TRIPOS>UNITY_ATOM_ATTR
41 1
charge -1
@<TRIPOS>BOND
     1     1     4    1
     2     1    24    1
     3     1     2    1
     4     1     3    2
     5    25    28    1
     6    25    24    1
     7    25    26    1
     8    25    27    2
     9     6    11    1
    10     6    12    1
    11    29    36    1
    12    29    37    1
    13     7     9    1
    14     7    13    1
    15     8    10    1
    16     8    14    1
    17     4     5    1
    18    28    36    1
    19    30    33    1
    20    30    38    1
    21    31    34    1
    22    31    39    1
    23    32    35    1
    24    32    40    1
    25    41    43   ar
    26    15    19    2
    27    42    43   ar
    28    16    22    2
    29    17    12    1
    30    17    19   ar
    31    17    20   ar
    32    18    19   ar
    33    18    22   ar
    34    18    23    1
    35     9    10    1
    36     9    11    1
    37    10    12    1
    38    11     5    1
    39    33    34    1
    40    33    35    1
    41    34    36    1
    42    35    37    1
    43    37    43    1
    44    20    21   ar
    45    21    22   ar
@<TRIPOS>MOLECULE
UDP-glaA
 43 45 0 0 0
SMALL
GASTEIGER

@<TRIPOS>ATOM
      1 P          20.9585   73.7439   -4.1772 P.3     1  UNL1        0.2189
      2 O          20.6270   74.7415   -5.4069 O.3     1  UNL1       -0.4371
      3 O          22.4014   73.7030   -3.7667 O.2     1  UNL1       -0.5170
      4 O          20.3183   72.3319   -4.6374 O.3     1  UNL1       -0.3112
      5 C          19.7703   71.4810   -3.6449 C.3     1  UNL1        0.1811
      6 O          17.8467   72.0540   -4.9663 O.3     1  UNL1       -0.3308
      7 O          16.2252   70.6292   -2.8849 O.3     1  UNL1       -0.3794
      8 O          16.3756   68.7851   -4.8881 O.3     1  UNL1       -0.3779
      9 C          17.5237   70.3164   -3.3887 C.3     1  UNL1        0.1713
     10 C          17.4197   69.7307   -4.7811 C.3     1  UNL1        0.1895
     11 C          18.2552   71.6268   -3.6480 C.3     1  UNL1        0.1764
     12 C          17.1753   70.9687   -5.6270 C.3     1  UNL1        0.2383
     13 H          16.3442   71.0364   -2.0099 H       1  UNL1        0.2105
     14 H          16.5504   68.0816   -4.2395 H       1  UNL1        0.2106
     15 O          15.6586   70.1483   -7.8635 O.2     1  UNL1       -0.2464
     16 O          19.2886   70.4937  -10.6817 O.2     1  UNL1       -0.2670
     17 N          17.6982   70.8361   -6.9567 N.ar    1  UNL1       -0.2551
     18 N          17.4673   70.3203   -9.2653 N.ar    1  UNL1       -0.2743
     19 C          16.8526   70.4161   -8.0099 C.ar    1  UNL1        0.3323
     20 C          19.0360   71.1209   -7.2070 C.ar    1  UNL1        0.0869
     21 C          19.6071   71.0252   -8.4097 C.ar    1  UNL1        0.0795
     22 C          18.7936   70.5924   -9.5632 C.ar    1  UNL1        0.2626
     23 H          16.8786   70.0196  -10.0373 H       1  UNL1        0.1734
     24 O          19.9435   74.2434   -3.0216 O.3     1  UNL1       -0.2703
     25 P          20.0714   75.4403   -1.9429 P.3     1  UNL1        0.2208
     26 O          18.5318   75.7831   -1.5846 O.3     1  UNL1       -0.4371
     27 O          20.8736   76.6168   -2.4203 O.2     1  UNL1       -0.5170
     28 O          20.6521   74.7327   -0.6140 O.3     1  UNL1       -0.2858
     29 O          20.4425   72.5002    0.1422 O.3     1  UNL1       -0.3226
     30 O          20.5625   74.6223    3.7146 O.3     1  UNL1       -0.3794
     31 O          19.0430   75.6346    1.4403 O.3     1  UNL1       -0.3775
     32 O          20.6262   71.9669    2.9566 O.3     1  UNL1       -0.3792
     33 C          20.8522   74.2962    2.3581 C.3     1  UNL1        0.1718
     34 C          19.5703   74.3144    1.5186 C.3     1  UNL1        0.1968
     35 C          21.4910   72.9056    2.3086 C.3     1  UNL1        0.1723
     36 C          19.8426   73.7992    0.0999 C.3     1  UNL1        0.2706
     37 C          21.6785   72.4784    0.8545 C.3     1  UNL1        0.1830
     38 H          21.4001   74.5963    4.2079 H       1  UNL1        0.2105
     39 H          18.2404   75.5980    0.8933 H       1  UNL1        0.2106
     40 H          19.8660   71.7951    2.3754 H       1  UNL1        0.2106
     41 O          23.4453   71.0487    0.2729 O.co2   1  UNL1       -0.5466
     42 O          21.5442   70.0776    1.0728 O.co2   1  UNL1       -0.5466
     43 C          22.1803   71.0728    0.7574 C.2     1  UNL1        0.0799
@<TRIPOS>UNITY_ATOM_ATTR
41 1
charge -1
@<TRIPOS>BOND
     1     1     4    1
     2     1    24    1
     3     1     2    1
     4     1     3    2
     5    25    28    1
     6    25    24    1
     7    25    26    1
     8    25    27    2
     9     6    11    1
    10     6    12    1
    11    29    36    1
    12    29    37    1
    13     7     9    1
    14     7    13    1
    15     8    10    1
    16     8    14    1
    17     4     5    1
    18    28    36    1
    19    30    33    1
    20    30    38    1
    21    31    34    1
    22    31    39    1
    23    32    35    1
    24    32    40    1
    25    41    43   ar
    26    15    19    2
    27    42    43   ar
    28    16    22    2
    29    17    12    1
    30    17    19   ar
    31    17    20   ar
    32    18    19   ar
    33    18    22   ar
    34    18    23    1
    35     9    10    1
    36     9    11    1
    37    10    12    1
    38    11     5    1
    39    33    34    1
    40    33    35    1
    41    34    36    1
    42    35    37    1
    43    37    43    1
    44    20    21   ar
    45    21    22   ar
@<TRIPOS>MOLECULE
UDP-glaA
 43 45 0 0 0
SMALL
GASTEIGER

@<TRIPOS>ATOM
      1 P          20.5233   73.7705   -2.6889 P.3     1  UNL1        0.2189
      2 O          20.0334   75.2776   -3.0142 O.3     1  UNL1       -0.4371
      3 O          19.4436   72.7293   -2.7391 O.2     1  UNL1       -0.5170
      4 O          21.3008   73.9094   -1.2777 O.3     1  UNL1       -0.3112
      5 C          22.6109   73.3789   -1.1709 C.3     1  UNL1        0.1811
      6 O          23.7977   71.6729    0.0354 O.3     1  UNL1       -0.3308
      7 O          21.1131   70.4540    0.5817 O.3     1  UNL1       -0.3794
      8 O          21.6725   71.7360    2.9226 O.3     1  UNL1       -0.3779
      9 C          21.4802   71.8311    0.5008 C.3     1  UNL1        0.1713
     10 C          22.2508   72.2427    1.7375 C.3     1  UNL1        0.1895
     11 C          22.5315   71.9735   -0.5919 C.3     1  UNL1        0.1764
     12 C          23.6256   71.6578    1.4621 C.3     1  UNL1        0.2383
     13 H          20.6575   70.2264   -0.2466 H       1  UNL1        0.2105
     14 H          20.7598   72.0693    2.9686 H       1  UNL1        0.2106
     15 O          26.0675   70.5699    2.3726 O.2     1  UNL1       -0.2464
     16 O          27.5908   74.6880    3.7723 O.2     1  UNL1       -0.2670
     17 N          24.6781   72.4225    2.0678 N.ar    1  UNL1       -0.2551
     18 N          26.8242   72.6212    3.0695 N.ar    1  UNL1       -0.2743
     19 C          25.8647   71.7796    2.4915 C.ar    1  UNL1        0.3323
     20 C          24.5288   73.7945    2.2371 C.ar    1  UNL1        0.0869
     21 C          25.4532   74.5833    2.7895 C.ar    1  UNL1        0.0795
     22 C          26.7211   73.9905    3.2595 C.ar    1  UNL1        0.2626
     23 H          27.6852   72.1806    3.3820 H       1  UNL1        0.1734
     24 O          21.7264   73.5445   -3.7456 O.3     1  UNL1       -0.2703
     25 P          22.0171   72.3360   -4.7789 P.3     1  UNL1        0.2208
     26 O          22.1207   71.0410   -3.8154 O.3     1  UNL1       -0.4371
     27 O          23.2155   72.5521   -5.6581 O.2     1  UNL1       -0.5170
     28 O          20.6297   72.1397   -5.5793 O.3     1  UNL1       -0.2858
     29 O          19.5257   70.0502   -5.4589 O.3     1  UNL1       -0.3226
     30 O          17.6844   71.8206   -8.7383 O.3     1  UNL1       -0.3794
     31 O          20.5621   72.0752   -8.3386 O.3     1  UNL1       -0.3775
     32 O          17.3036   69.5537   -7.2066 O.3     1  UNL1       -0.3792
     33 C          18.3202   71.7295   -7.4664 C.3     1  UNL1        0.1718
     34 C          19.7376   71.1666   -7.6165 C.3     1  UNL1        0.1968
     35 C          17.4876   70.8178   -6.5608 C.3     1  UNL1        0.1723
     36 C          20.3661   70.9040   -6.2424 C.3     1  UNL1        0.2706
     37 C          18.2243   70.5932   -5.2421 C.3     1  UNL1        0.1830
     38 H          16.7916   72.1783   -8.5951 H       1  UNL1        0.2105
     39 H          21.4487   71.6816   -8.3999 H       1  UNL1        0.2106
     40 H          18.1422   69.0632   -7.1702 H       1  UNL1        0.2106
     41 O          18.1986   69.3836   -3.2321 O.co2   1  UNL1       -0.5466
     42 O          16.4465   69.0681   -4.6561 O.co2   1  UNL1       -0.5466
     43 C          17.5089   69.6047   -4.3771 C.2     1  UNL1        0.0799
@<TRIPOS>UNITY_ATOM_ATTR
41 1
charge -1
@<TRIPOS>BOND
     1     1     4    1
     2     1    24    1
     3     1     2    1
     4     1     3    2
     5    25    28    1
     6    25    24    1
     7    25    26    1
     8    25    27    2
     9     6    11    1
    10     6    12    1
    11    29    36    1
    12    29    37    1
    13     7     9    1
    14     7    13    1
    15     8    10    1
    16     8    14    1
    17     4     5    1
    18    28    36    1
    19    30    33    1
    20    30    38    1
    21    31    34    1
    22    31    39    1
    23    32    35    1
    24    32    40    1
    25    41    43   ar
    26    15    19    2
    27    42    43   ar
    28    16    22    2
    29    17    12    1
    30    17    19   ar
    31    17    20   ar
    32    18    19   ar
    33    18    22   ar
    34    18    23    1
    35     9    10    1
    36     9    11    1
    37    10    12    1
    38    11     5    1
    39    33    34    1
    40    33    35    1
    41    34    36    1
    42    35    37    1
    43    37    43    1
    44    20    21   ar
    45    21    22   ar
@<TRIPOS>MOLECULE
UDP-glaA
 43 45 0 0 0
SMALL
GASTEIGER

@<TRIPOS>ATOM
      1 P          23.6572   72.4043   -3.3692 P.3     1  UNL1        0.2189
      2 O          24.1957   70.9029   -3.0988 O.3     1  UNL1       -0.4371
      3 O          24.7139   73.3943   -3.7634 O.2     1  UNL1       -0.5170
      4 O          22.8198   72.7645   -2.0334 O.3     1  UNL1       -0.3112
      5 C          21.6186   73.5054   -2.1660 C.3     1  UNL1        0.1811
      6 O          20.9567   72.0902   -0.3403 O.3     1  UNL1       -0.3308
      7 O          18.1315   72.7485   -1.0994 O.3     1  UNL1       -0.3794
      8 O          18.5698   74.3829    1.0389 O.3     1  UNL1       -0.3779
      9 C          19.2934   73.5769   -1.1377 C.3     1  UNL1        0.1713
     10 C          19.6855   73.9966    0.2633 C.3     1  UNL1        0.1895
     11 C          20.4748   72.7100   -1.5530 C.3     1  UNL1        0.1764
     12 C          20.3581   72.7413    0.7924 C.3     1  UNL1        0.2383
     13 H          17.9418   72.4730   -2.0125 H       1  UNL1        0.2105
     14 H          18.1331   75.1192    0.5771 H       1  UNL1        0.2106
     15 O          19.8680   73.2763    3.5217 O.2     1  UNL1       -0.2464
     16 O          24.3553   73.8461    4.4042 O.2     1  UNL1       -0.2670
     17 N          21.3794   73.0320    1.7577 N.ar    1  UNL1       -0.2551
     18 N          22.1028   73.5602    3.9592 N.ar    1  UNL1       -0.2743
     19 C          21.0273   73.2874    3.1037 C.ar    1  UNL1        0.3323
     20 C          22.7136   73.0622    1.3675 C.ar    1  UNL1        0.0869
     21 C          23.7277   73.3234    2.1953 C.ar    1  UNL1        0.0795
     22 C          23.4456   73.6018    3.6175 C.ar    1  UNL1        0.2626
     23 H          21.8732   73.7475    4.9315 H       1  UNL1        0.1734
     24 O          22.4985   72.1801   -4.4748 O.3     1  UNL1       -0.2703
     25 P          22.1025   73.0398   -5.7850 P.3     1  UNL1        0.2208
     26 O          23.0681   72.4337   -6.9323 O.3     1  UNL1       -0.4371
     27 O          22.2135   74.5265   -5.6029 O.2     1  UNL1       -0.5170
     28 O          20.6251   72.5251   -6.1807 O.3     1  UNL1       -0.2858
     29 O          19.5490   70.5018   -5.5912 O.3     1  UNL1       -0.3226
     30 O          17.8856   71.3213   -9.3115 O.3     1  UNL1       -0.3794
     31 O          20.7288   71.7585   -8.8310 O.3     1  UNL1       -0.3775
     32 O          17.4470   69.5081   -7.2744 O.3     1  UNL1       -0.3792
     33 C          18.4431   71.5767   -8.0254 C.3     1  UNL1        0.1718
     34 C          19.8758   71.0384   -7.9474 C.3     1  UNL1        0.1968
     35 C          17.5709   70.9001   -6.9643 C.3     1  UNL1        0.1723
     36 C          20.4224   71.1538   -6.5190 C.3     1  UNL1        0.2706
     37 C          18.2282   71.0415   -5.5932 C.3     1  UNL1        0.1830
     38 H          16.9801   71.6758   -9.3144 H       1  UNL1        0.2105
     39 H          21.6237   71.3900   -8.7401 H       1  UNL1        0.2106
     40 H          18.2894   69.0694   -7.0671 H       1  UNL1        0.2106
     41 O          16.7037   71.1207   -3.8118 O.co2   1  UNL1       -0.5466
     42 O          17.5425   69.0758   -4.3702 O.co2   1  UNL1       -0.5466
     43 C          17.4766   70.2839   -4.5452 C.2     1  UNL1        0.0799
@<TRIPOS>UNITY_ATOM_ATTR
41 1
charge -1
@<TRIPOS>BOND
     1     1     4    1
     2     1    24    1
     3     1     2    1
     4     1     3    2
     5    25    28    1
     6    25    24    1
     7    25    26    1
     8    25    27    2
     9     6    11    1
    10     6    12    1
    11    29    36    1
    12    29    37    1
    13     7     9    1
    14     7    13    1
    15     8    10    1
    16     8    14    1
    17     4     5    1
    18    28    36    1
    19    30    33    1
    20    30    38    1
    21    31    34    1
    22    31    39    1
    23    32    35    1
    24    32    40    1
    25    41    43   ar
    26    15    19    2
    27    42    43   ar
    28    16    22    2
    29    17    12    1
    30    17    19   ar
    31    17    20   ar
    32    18    19   ar
    33    18    22   ar
    34    18    23    1
    35     9    10    1
    36     9    11    1
    37    10    12    1
    38    11     5    1
    39    33    34    1
    40    33    35    1
    41    34    36    1
    42    35    37    1
    43    37    43    1
    44    20    21   ar
    45    21    22   ar
@<TRIPOS>MOLECULE
UDP-glaA
 43 45 0 0 0
SMALL
GASTEIGER

@<TRIPOS>ATOM
      1 P          20.6170   73.0198   -3.3388 P.3     1  UNL1        0.2189
      2 O          21.5726   72.3449   -2.2214 O.3     1  UNL1       -0.4371
      3 O          19.5540   73.9297   -2.7966 O.2     1  UNL1       -0.5170
      4 O          20.0895   71.7637   -4.2105 O.3     1  UNL1       -0.3112
      5 C          19.3948   70.7221   -3.5460 C.3     1  UNL1        0.1811
      6 O          17.6267   71.5853   -4.9255 O.3     1  UNL1       -0.3308
      7 O          15.7501   70.0705   -3.1436 O.3     1  UNL1       -0.3794
      8 O          15.9309   68.4523   -5.3309 O.3     1  UNL1       -0.3779
      9 C          17.0597   69.7149   -3.5866 C.3     1  UNL1        0.1713
     10 C          17.0262   69.2960   -5.0413 C.3     1  UNL1        0.1895
     11 C          17.8986   70.9849   -3.6399 C.3     1  UNL1        0.1764
     12 C          16.9362   70.6350   -5.7534 C.3     1  UNL1        0.2383
     13 H          15.8272   70.3684   -2.2211 H       1  UNL1        0.2105
     14 H          16.0043   67.6701   -4.7574 H       1  UNL1        0.2106
     15 O          15.5175   70.5803   -8.1947 O.2     1  UNL1       -0.2464
     16 O          19.4077   70.5359  -10.6651 O.2     1  UNL1       -0.2670
     17 N          17.5527   70.6094   -7.0490 N.ar    1  UNL1       -0.2551
     18 N          17.4556   70.5577   -9.4232 N.ar    1  UNL1       -0.2743
     19 C          16.7497   70.5821   -8.2131 C.ar    1  UNL1        0.3323
     20 C          18.9390   70.6112   -7.1572 C.ar    1  UNL1        0.0869
     21 C          19.5971   70.5883   -8.3183 C.ar    1  UNL1        0.0795
     22 C          18.8329   70.5581   -9.5811 C.ar    1  UNL1        0.2626
     23 H          16.8988   70.5372  -10.2733 H       1  UNL1        0.1734
     24 O          21.6723   73.7348   -4.3340 O.3     1  UNL1       -0.2703
     25 P          22.9350   73.1374   -5.1472 P.3     1  UNL1        0.2208
     26 O          22.2445   72.1855   -6.2577 O.3     1  UNL1       -0.4371
     27 O          23.9521   72.4466   -4.2846 O.2     1  UNL1       -0.5170
     28 O          23.5118   74.3902   -5.9847 O.3     1  UNL1       -0.2858
     29 O          22.4374   76.4128   -6.5800 O.3     1  UNL1       -0.3226
     30 O          25.0533   75.8472   -9.7607 O.3     1  UNL1       -0.3794
     31 O          23.5900   73.5934   -8.6270 O.3     1  UNL1       -0.3775
     32 O          23.3703   77.8531   -8.8808 O.3     1  UNL1       -0.3792
     33 C          24.5702   75.8077   -8.4207 C.3     1  UNL1        0.1718
     34 C          23.2990   74.9563   -8.3358 C.3     1  UNL1        0.1968
     35 C          24.2752   77.2373   -7.9584 C.3     1  UNL1        0.1723
     36 C          22.6766   75.0474   -6.9370 C.3     1  UNL1        0.2706
     37 C          23.6235   77.2058   -6.5776 C.3     1  UNL1        0.1830
     38 H          25.8550   76.3975   -9.7674 H       1  UNL1        0.2105
     39 H          22.7597   73.0936   -8.5518 H       1  UNL1        0.2106
     40 H          22.4854   77.4741   -8.7451 H       1  UNL1        0.2106
     41 O          24.1012   79.5024   -6.5382 O.co2   1  UNL1       -0.5466
     42 O          22.1799   78.8239   -5.5157 O.co2   1  UNL1       -0.5466
     43 C          23.1995   78.5722   -6.1414 C.2     1  UNL1        0.0799
@<TRIPOS>UNITY_ATOM_ATTR
41 1
charge -1
@<TRIPOS>BOND
     1     1     4    1
     2     1    24    1
     3     1     2    1
     4     1     3    2
     5    25    28    1
     6    25    24    1
     7    25    26    1
     8    25    27    2
     9     6    11    1
    10     6    12    1
    11    29    36    1
    12    29    37    1
    13     7     9    1
    14     7    13    1
    15     8    10    1
    16     8    14    1
    17     4     5    1
    18    28    36    1
    19    30    33    1
    20    30    38    1
    21    31    34    1
    22    31    39    1
    23    32    35    1
    24    32    40    1
    25    41    43   ar
    26    15    19    2
    27    42    43   ar
    28    16    22    2
    29    17    12    1
    30    17    19   ar
    31    17    20   ar
    32    18    19   ar
    33    18    22   ar
    34    18    23    1
    35     9    10    1
    36     9    11    1
    37    10    12    1
    38    11     5    1
    39    33    34    1
    40    33    35    1
    41    34    36    1
    42    35    37    1
    43    37    43    1
    44    20    21   ar
    45    21    22   ar
@<TRIPOS>MOLECULE
UDP-glaA
 43 45 0 0 0
SMALL
GASTEIGER

@<TRIPOS>ATOM
      1 P          22.7905   73.2158   -4.4637 P.3     1  UNL1        0.2189
      2 O          24.2411   72.5163   -4.3095 O.3     1  UNL1       -0.4371
      3 O          22.8246   74.6944   -4.7181 O.2     1  UNL1       -0.5170
      4 O          21.9898   72.7488   -3.1384 O.3     1  UNL1       -0.3112
      5 C          21.6345   71.3829   -3.0076 C.3     1  UNL1        0.1811
      6 O          20.9073   70.5693   -0.8667 O.3     1  UNL1       -0.3308
      7 O          18.5818   72.4402   -1.1547 O.3     1  UNL1       -0.3794
      8 O          20.2360   73.8017    0.5322 O.3     1  UNL1       -0.3779
      9 C          19.9371   72.6137   -1.5678 C.3     1  UNL1        0.1713
     10 C          20.8211   72.8843   -0.3687 C.3     1  UNL1        0.1895
     11 C          20.4574   71.2659   -2.0497 C.3     1  UNL1        0.1764
     12 C          20.9756   71.4963    0.2293 C.3     1  UNL1        0.2383
     13 H          18.0612   72.2310   -1.9489 H       1  UNL1        0.2105
     14 H          20.0703   74.6264    0.0437 H       1  UNL1        0.2106
     15 O          21.3585   71.8897    2.9995 O.2     1  UNL1       -0.2464
     16 O          25.8328   70.8218    2.7182 O.2     1  UNL1       -0.2670
     17 N          22.2295   71.3276    0.9065 N.ar    1  UNL1       -0.2551
     18 N          23.5864   71.3582    2.8575 N.ar    1  UNL1       -0.2743
     19 C          22.3153   71.5509    2.3006 C.ar    1  UNL1        0.3323
     20 C          23.3581   70.9449    0.1901 C.ar    1  UNL1        0.0869
     21 C          24.5629   70.7648    0.7357 C.ar    1  UNL1        0.0795
     22 C          24.7382   70.9784    2.1860 C.ar    1  UNL1        0.2626
     23 H          23.6719   71.5137    3.8584 H       1  UNL1        0.1734
     24 O          22.0918   72.3468   -5.6350 O.3     1  UNL1       -0.2703
     25 P          20.8570   72.6927   -6.6189 P.3     1  UNL1        0.2208
     26 O          21.1259   71.7427   -7.9000 O.3     1  UNL1       -0.4371
     27 O          20.7207   74.1520   -6.9468 O.2     1  UNL1       -0.5170
     28 O          19.5658   72.0483   -5.8966 O.3     1  UNL1       -0.2858
     29 O          18.8552   69.9261   -5.1281 O.3     1  UNL1       -0.3226
     30 O          15.4952   71.2853   -7.1633 O.3     1  UNL1       -0.3794
     31 O          18.1649   71.7219   -8.2532 O.3     1  UNL1       -0.3775
     32 O          16.1178   69.1558   -5.5179 O.3     1  UNL1       -0.3792
     33 C          16.6765   71.3463   -6.3690 C.3     1  UNL1        0.1718
     34 C          17.8842   70.8445   -7.1678 C.3     1  UNL1        0.1968
     35 C          16.4788   70.4826   -5.1202 C.3     1  UNL1        0.1723
     36 C          19.1247   70.7441   -6.2714 C.3     1  UNL1        0.2706
     37 C          17.7826   70.4204   -4.3276 C.3     1  UNL1        0.1830
     38 H          14.7580   71.6092   -6.6181 H       1  UNL1        0.2105
     39 H          18.9400   71.3697   -8.7223 H       1  UNL1        0.2106
     40 H          16.9077   68.7141   -5.8730 H       1  UNL1        0.2106
     41 O          17.9427   68.2117   -3.5531 O.co2   1  UNL1       -0.5466
     42 O          17.3854   69.8096   -2.0257 O.co2   1  UNL1       -0.5466
     43 C          17.6737   69.4824   -3.1677 C.2     1  UNL1        0.0799
@<TRIPOS>UNITY_ATOM_ATTR
41 1
charge -1
@<TRIPOS>BOND
     1     1     4    1
     2     1    24    1
     3     1     2    1
     4     1     3    2
     5    25    28    1
     6    25    24    1
     7    25    26    1
     8    25    27    2
     9     6    11    1
    10     6    12    1
    11    29    36    1
    12    29    37    1
    13     7     9    1
    14     7    13    1
    15     8    10    1
    16     8    14    1
    17     4     5    1
    18    28    36    1
    19    30    33    1
    20    30    38    1
    21    31    34    1
    22    31    39    1
    23    32    35    1
    24    32    40    1
    25    41    43   ar
    26    15    19    2
    27    42    43   ar
    28    16    22    2
    29    17    12    1
    30    17    19   ar
    31    17    20   ar
    32    18    19   ar
    33    18    22   ar
    34    18    23    1
    35     9    10    1
    36     9    11    1
    37    10    12    1
    38    11     5    1
    39    33    34    1
    40    33    35    1
    41    34    36    1
    42    35    37    1
    43    37    43    1
    44    20    21   ar
    45    21    22   ar
@<TRIPOS>MOLECULE
UDP-glaA
 43 45 0 0 0
SMALL
GASTEIGER

@<TRIPOS>ATOM
      1 P          23.4418   72.1820   -3.5926 P.3     1  UNL1        0.2189
      2 O          24.1544   70.7893   -3.1804 O.3     1  UNL1       -0.4371
      3 O          24.3529   73.1994   -4.2146 O.2     1  UNL1       -0.5170
      4 O          22.6863   72.6482   -2.2408 O.3     1  UNL1       -0.3112
      5 C          23.4239   72.6855   -1.0309 C.3     1  UNL1        0.1811
      6 O          24.3842   71.0537    0.4487 O.3     1  UNL1       -0.3308
      7 O          21.5673   70.2427    1.0800 O.3     1  UNL1       -0.3794
      8 O          22.2377   71.7859    3.2259 O.3     1  UNL1       -0.3779
      9 C          22.0944   71.5418    0.8112 C.3     1  UNL1        0.1713
     10 C          22.8892   72.0421    1.9989 C.3     1  UNL1        0.1895
     11 C          23.1716   71.3999   -0.2562 C.3     1  UNL1        0.1764
     12 C          24.1900   71.2702    1.8561 C.3     1  UNL1        0.2383
     13 H          21.1007   69.9479    0.2794 H       1  UNL1        0.2105
     14 H          21.3698   72.2240    3.1934 H       1  UNL1        0.2106
     15 O          24.1715   74.0257    2.4747 O.2     1  UNL1       -0.2464
     16 O          28.5693   73.9331    3.8495 O.2     1  UNL1       -0.2670
     17 N          25.3156   71.9917    2.3775 N.ar    1  UNL1       -0.2551
     18 N          26.3616   73.9779    3.1584 N.ar    1  UNL1       -0.2743
     19 C          25.2022   73.3743    2.6538 C.ar    1  UNL1        0.3323
     20 C          26.5160   71.3296    2.6098 C.ar    1  UNL1        0.0869
     21 C          27.6124   71.9191    3.0918 C.ar    1  UNL1        0.0795
     22 C          27.5783   73.3612    3.4058 C.ar    1  UNL1        0.2626
     23 H          26.3035   74.9716    3.3638 H       1  UNL1        0.1734
     24 O          22.2242   71.6992   -4.5410 O.3     1  UNL1       -0.2703
     25 P          20.6231   71.7839   -4.3364 P.3     1  UNL1        0.2208
     26 O          20.3293   73.3742   -4.3630 O.3     1  UNL1       -0.4371
     27 O          20.1210   71.0812   -3.1077 O.2     1  UNL1       -0.5170
     28 O          20.0041   71.2310   -5.7204 O.3     1  UNL1       -0.2858
     29 O          19.0290   71.7881   -7.8032 O.3     1  UNL1       -0.3226
     30 O          15.8969   69.8647   -5.8617 O.3     1  UNL1       -0.3794
     31 O          17.6209   71.7196   -4.4150 O.3     1  UNL1       -0.3775
     32 O          16.3981   70.8124   -8.4074 O.3     1  UNL1       -0.3792
     33 C          17.2389   70.1596   -6.2390 C.3     1  UNL1        0.1718
     34 C          17.6060   71.5909   -5.8327 C.3     1  UNL1        0.1968
     35 C          17.3748   69.9941   -7.7551 C.3     1  UNL1        0.1723
     36 C          18.9842   71.9756   -6.3848 C.3     1  UNL1        0.2706
     37 C          18.7660   70.4424   -8.1975 C.3     1  UNL1        0.1830
     38 H          15.7077   68.9523   -6.1398 H       1  UNL1        0.2105
     39 H          17.8667   72.6366   -4.2062 H       1  UNL1        0.2106
     40 H          16.6782   71.7409   -8.3398 H       1  UNL1        0.2106
     41 O          17.9777   69.5951  -10.2383 O.co2   1  UNL1       -0.5466
     42 O          19.7233   71.0586  -10.3267 O.co2   1  UNL1       -0.5466
     43 C          18.9000   70.4204   -9.6870 C.2     1  UNL1        0.0799
@<TRIPOS>UNITY_ATOM_ATTR
41 1
charge -1
@<TRIPOS>BOND
     1     1     4    1
     2     1    24    1
     3     1     2    1
     4     1     3    2
     5    25    28    1
     6    25    24    1
     7    25    26    1
     8    25    27    2
     9     6    11    1
    10     6    12    1
    11    29    36    1
    12    29    37    1
    13     7     9    1
    14     7    13    1
    15     8    10    1
    16     8    14    1
    17     4     5    1
    18    28    36    1
    19    30    33    1
    20    30    38    1
    21    31    34    1
    22    31    39    1
    23    32    35    1
    24    32    40    1
    25    41    43   ar
    26    15    19    2
    27    42    43   ar
    28    16    22    2
    29    17    12    1
    30    17    19   ar
    31    17    20   ar
    32    18    19   ar
    33    18    22   ar
    34    18    23    1
    35     9    10    1
    36     9    11    1
    37    10    12    1
    38    11     5    1
    39    33    34    1
    40    33    35    1
    41    34    36    1
    42    35    37    1
    43    37    43    1
    44    20    21   ar
    45    21    22   ar
@<TRIPOS>MOLECULE
UDP-glaA
 43 45 0 0 0
SMALL
GASTEIGER

@<TRIPOS>ATOM
      1 P          18.8316   70.9085   -3.3688 P.3     1  UNL1        0.2189
      2 O          19.5222   70.6089   -1.9368 O.3     1  UNL1       -0.4371
      3 O          17.6581   70.0340   -3.7010 O.2     1  UNL1       -0.5170
      4 O          20.0645   70.8574   -4.4143 O.3     1  UNL1       -0.3112
      5 C          21.2107   71.6480   -4.1492 C.3     1  UNL1        0.1811
      6 O          21.2900   71.1485   -6.4984 O.3     1  UNL1       -0.3308
      7 O          23.1198   73.5109   -6.7484 O.3     1  UNL1       -0.3794
      8 O          20.7309   74.5156   -7.5965 O.3     1  UNL1       -0.3779
      9 C          21.9929   73.3280   -5.8914 C.3     1  UNL1        0.1713
     10 C          20.7073   73.4378   -6.6837 C.3     1  UNL1        0.1895
     11 C          21.9711   71.8708   -5.4488 C.3     1  UNL1        0.1764
     12 C          20.6469   72.0871   -7.3764 C.3     1  UNL1        0.2383
     13 H          23.9184   73.3933   -6.2061 H       1  UNL1        0.2105
     14 H          20.8812   75.3292   -7.0849 H       1  UNL1        0.2106
     15 O          19.9408   69.9283   -9.0547 O.2     1  UNL1       -0.2464
     16 O          15.4456   70.5174   -8.2275 O.2     1  UNL1       -0.2670
     17 N          19.3001   71.6542   -7.6172 N.ar    1  UNL1       -0.2551
     18 N          17.7028   70.2234   -8.6421 N.ar    1  UNL1       -0.2743
     19 C          19.0531   70.5595   -8.4783 C.ar    1  UNL1        0.3323
     20 C          18.2402   72.3124   -7.0034 C.ar    1  UNL1        0.0869
     21 C          16.9583   71.9796   -7.1693 C.ar    1  UNL1        0.0795
     22 C          16.6144   70.8483   -8.0533 C.ar    1  UNL1        0.2626
     23 H          17.5014   69.4398   -9.2573 H       1  UNL1        0.1734
     24 O          18.4924   72.4874   -3.2843 O.3     1  UNL1       -0.2703
     25 P          18.8170   73.5818   -2.1400 P.3     1  UNL1        0.2208
     26 O          17.9199   73.0871   -0.8883 O.3     1  UNL1       -0.4371
     27 O          18.5679   75.0026   -2.5582 O.2     1  UNL1       -0.5170
     28 O          20.3384   73.2736   -1.6991 O.3     1  UNL1       -0.2858
     29 O          21.2319   72.5722    0.3767 O.3     1  UNL1       -0.3226
     30 O          24.2747   74.9815   -1.1118 O.3     1  UNL1       -0.3794
     31 O          21.4822   75.7694   -1.4073 O.3     1  UNL1       -0.3775
     32 O          23.9428   73.2595    1.0223 O.3     1  UNL1       -0.3792
     33 C          23.1876   74.0605   -1.1277 C.3     1  UNL1        0.1718
     34 C          21.9242   74.7151   -0.5588 C.3     1  UNL1        0.1968
     35 C          23.5646   72.8348   -0.2912 C.3     1  UNL1        0.1723
     36 C          20.7975   73.6848   -0.4122 C.3     1  UNL1        0.2706
     37 C          22.3618   71.9007   -0.1784 C.3     1  UNL1        0.1830
     38 H          25.0514   74.5249   -1.4773 H       1  UNL1        0.2105
     39 H          20.6776   76.1459   -1.0126 H       1  UNL1        0.2106
     40 H          23.1406   73.5203    1.5056 H       1  UNL1        0.2106
     41 O          21.4984   70.1086    1.0653 O.co2   1  UNL1       -0.5466
     42 O          23.7540   70.4312    1.1377 O.co2   1  UNL1       -0.5466
     43 C          22.6444   70.7527    0.7377 C.2     1  UNL1        0.0799
@<TRIPOS>UNITY_ATOM_ATTR
41 1
charge -1
@<TRIPOS>BOND
     1     1     4    1
     2     1    24    1
     3     1     2    1
     4     1     3    2
     5    25    28    1
     6    25    24    1
     7    25    26    1
     8    25    27    2
     9     6    11    1
    10     6    12    1
    11    29    36    1
    12    29    37    1
    13     7     9    1
    14     7    13    1
    15     8    10    1
    16     8    14    1
    17     4     5    1
    18    28    36    1
    19    30    33    1
    20    30    38    1
    21    31    34    1
    22    31    39    1
    23    32    35    1
    24    32    40    1
    25    41    43   ar
    26    15    19    2
    27    42    43   ar
    28    16    22    2
    29    17    12    1
    30    17    19   ar
    31    17    20   ar
    32    18    19   ar
    33    18    22   ar
    34    18    23    1
    35     9    10    1
    36     9    11    1
    37    10    12    1
    38    11     5    1
    39    33    34    1
    40    33    35    1
    41    34    36    1
    42    35    37    1
    43    37    43    1
    44    20    21   ar
    45    21    22   ar
@<TRIPOS>MOLECULE
UDP-glaA
 43 45 0 0 0
SMALL
GASTEIGER

@<TRIPOS>ATOM
      1 P          22.6475   72.3049   -3.5742 P.3     1  UNL1        0.2189
      2 O          22.0225   70.8143   -3.5038 O.3     1  UNL1       -0.4371
      3 O          24.0546   72.3775   -4.0909 O.2     1  UNL1       -0.5170
      4 O          22.4134   72.8962   -2.0872 O.3     1  UNL1       -0.3112
      5 C          23.4441   72.7415   -1.1266 C.3     1  UNL1        0.1811
      6 O          24.3634   71.2176    0.4880 O.3     1  UNL1       -0.3308
      7 O          21.5699   70.1804    0.8223 O.3     1  UNL1       -0.3794
      8 O          21.8657   71.8046    2.9926 O.3     1  UNL1       -0.3779
      9 C          22.0151   71.5154    0.5832 C.3     1  UNL1        0.1713
     10 C          22.6276   72.0977    1.8396 C.3     1  UNL1        0.1895
     11 C          23.2132   71.4502   -0.3547 C.3     1  UNL1        0.1764
     12 C          23.9952   71.4366    1.8597 C.3     1  UNL1        0.2383
     13 H          21.2220   69.8361   -0.0180 H       1  UNL1        0.2105
     14 H          20.9739   72.1672    2.8541 H       1  UNL1        0.2106
     15 O          26.6609   70.6312    2.3300 O.2     1  UNL1       -0.2464
     16 O          27.7321   74.6714    4.2711 O.2     1  UNL1       -0.2670
     17 N          24.9919   72.2578    2.4855 N.ar    1  UNL1       -0.2551
     18 N          27.1924   72.6434    3.2967 N.ar    1  UNL1       -0.2743
     19 C          26.3014   71.7581    2.6759 C.ar    1  UNL1        0.3323
     20 C          24.6678   73.5436    2.9039 C.ar    1  UNL1        0.0869
     21 C          25.5287   74.3757    3.4939 C.ar    1  UNL1        0.0795
     22 C          26.9164   73.9308    3.7305 C.ar    1  UNL1        0.2626
     23 H          28.1395   72.3052    3.4444 H       1  UNL1        0.1734
     24 O          21.5620   73.1115   -4.4609 O.3     1  UNL1       -0.2703
     25 P          20.9120   72.7775   -5.9026 P.3     1  UNL1        0.2208
     26 O          21.8640   71.6022   -6.4756 O.3     1  UNL1       -0.4371
     27 O          20.7814   73.9673   -6.8098 O.2     1  UNL1       -0.5170
     28 O          19.5163   72.0428   -5.5616 O.3     1  UNL1       -0.2858
     29 O          19.1630   69.9394   -4.5369 O.3     1  UNL1       -0.3226
     30 O          15.8505   70.2623   -7.0274 O.3     1  UNL1       -0.3794
     31 O          18.4844   71.1123   -7.9473 O.3     1  UNL1       -0.3775
     32 O          16.6971   68.5548   -5.0280 O.3     1  UNL1       -0.3792
     33 C          16.8983   70.6807   -6.1571 C.3     1  UNL1        0.1718
     34 C          18.2643   70.3477   -6.7667 C.3     1  UNL1        0.1968
     35 C          16.7379   69.9690   -4.8110 C.3     1  UNL1        0.1723
     36 C          19.3905   70.6363   -5.7663 C.3     1  UNL1        0.2706
     37 C          17.9298   70.2942   -3.9133 C.3     1  UNL1        0.1830
     38 H          15.0067   70.4902   -6.6012 H       1  UNL1        0.2105
     39 H          19.3622   70.8753   -8.2910 H       1  UNL1        0.2106
     40 H          17.5944   68.2495   -5.2444 H       1  UNL1        0.2106
     41 O          18.8925   69.8855   -1.8133 O.co2   1  UNL1       -0.5466
     42 O          17.0442   68.6693   -2.3624 O.co2   1  UNL1       -0.5466
     43 C          17.8806   69.5179   -2.6358 C.2     1  UNL1        0.0799
@<TRIPOS>UNITY_ATOM_ATTR
41 1
charge -1
@<TRIPOS>BOND
     1     1     4    1
     2     1    24    1
     3     1     2    1
     4     1     3    2
     5    25    28    1
     6    25    24    1
     7    25    26    1
     8    25    27    2
     9     6    11    1
    10     6    12    1
    11    29    36    1
    12    29    37    1
    13     7     9    1
    14     7    13    1
    15     8    10    1
    16     8    14    1
    17     4     5    1
    18    28    36    1
    19    30    33    1
    20    30    38    1
    21    31    34    1
    22    31    39    1
    23    32    35    1
    24    32    40    1
    25    41    43   ar
    26    15    19    2
    27    42    43   ar
    28    16    22    2
    29    17    12    1
    30    17    19   ar
    31    17    20   ar
    32    18    19   ar
    33    18    22   ar
    34    18    23    1
    35     9    10    1
    36     9    11    1
    37    10    12    1
    38    11     5    1
    39    33    34    1
    40    33    35    1
    41    34    36    1
    42    35    37    1
    43    37    43    1
    44    20    21   ar
    45    21    22   ar
@<TRIPOS>MOLECULE
UDP-glaA
 43 45 0 0 0
SMALL
GASTEIGER

@<TRIPOS>ATOM
      1 P          23.5171   72.4029   -3.4478 P.3     1  UNL1        0.2189
      2 O          24.0443   70.8875   -3.2404 O.3     1  UNL1       -0.4371
      3 O          24.5774   73.3961   -3.8236 O.2     1  UNL1       -0.5170
      4 O          22.7052   72.7228   -2.0862 O.3     1  UNL1       -0.3112
      5 C          23.4302   72.8198   -0.8720 C.3     1  UNL1        0.1811
      6 O          24.5072   71.2926    0.6386 O.3     1  UNL1       -0.3308
      7 O          21.7703   70.1965    1.1854 O.3     1  UNL1       -0.3794
      8 O          22.2139   71.7969    3.3482 O.3     1  UNL1       -0.3779
      9 C          22.1696   71.5431    0.9307 C.3     1  UNL1        0.1713
     10 C          22.8726   72.1203    2.1412 C.3     1  UNL1        0.1895
     11 C          23.2874   71.5139   -0.1033 C.3     1  UNL1        0.1764
     12 C          24.2493   71.4859    2.0391 C.3     1  UNL1        0.2383
     13 H          21.3608   69.8568    0.3715 H       1  UNL1        0.2105
     14 H          21.3071   72.1438    3.2888 H       1  UNL1        0.2106
     15 O          26.9239   70.6681    2.4298 O.2     1  UNL1       -0.2464
     16 O          28.1134   74.7638    4.1759 O.2     1  UNL1       -0.2670
     17 N          25.2788   72.3180    2.5932 N.ar    1  UNL1       -0.2551
     18 N          27.5144   72.7079    3.2995 N.ar    1  UNL1       -0.2743
     19 C          26.5900   71.8107    2.7484 C.ar    1  UNL1        0.3323
     20 C          24.9847   73.6217    2.9769 C.ar    1  UNL1        0.0869
     21 C          25.8773   74.4650    3.5004 C.ar    1  UNL1        0.0795
     22 C          27.2691   74.0133    3.6966 C.ar    1  UNL1        0.2626
     23 H          28.4634   72.3646    3.4209 H       1  UNL1        0.1734
     24 O          22.3383   72.2299   -4.5413 O.3     1  UNL1       -0.2703
     25 P          20.9091   71.4806   -4.4501 P.3     1  UNL1        0.2208
     26 O          19.9582   72.5801   -3.7408 O.3     1  UNL1       -0.4371
     27 O          20.9530   70.1536   -3.7479 O.2     1  UNL1       -0.5170
     28 O          20.3858   71.4109   -5.9749 O.3     1  UNL1       -0.2858
     29 O          18.1201   70.7544   -6.1629 O.3     1  UNL1       -0.3226
     30 O          19.3732   70.7041  -10.1261 O.3     1  UNL1       -0.3794
     31 O          21.1071   69.6913   -8.0110 O.3     1  UNL1       -0.3775
     32 O          16.9745   70.4600   -8.7782 O.3     1  UNL1       -0.3792
     33 C          19.2966   71.1255   -8.7671 C.3     1  UNL1        0.1718
     34 C          19.7271   69.9913   -7.8308 C.3     1  UNL1        0.1968
     35 C          17.8558   71.5415   -8.4580 C.3     1  UNL1        0.1723
     36 C          19.4854   70.3751   -6.3657 C.3     1  UNL1        0.2706
     37 C          17.7217   71.8609   -6.9707 C.3     1  UNL1        0.1830
     38 H          19.0901   71.4507  -10.6811 H       1  UNL1        0.2105
     39 H          21.3351   68.9767   -7.3928 H       1  UNL1        0.2106
     40 H          17.0723   69.7707   -8.0996 H       1  UNL1        0.2106
     41 O          15.6241   72.6589   -7.6541 O.co2   1  UNL1       -0.5466
     42 O          15.8113   71.9468   -5.4966 O.co2   1  UNL1       -0.5466
     43 C          16.3017   72.1471   -6.5984 C.2     1  UNL1        0.0799
@<TRIPOS>UNITY_ATOM_ATTR
41 1
charge -1
@<TRIPOS>BOND
     1     1     4    1
     2     1    24    1
     3     1     2    1
     4     1     3    2
     5    25    28    1
     6    25    24    1
     7    25    26    1
     8    25    27    2
     9     6    11    1
    10     6    12    1
    11    29    36    1
    12    29    37    1
    13     7     9    1
    14     7    13    1
    15     8    10    1
    16     8    14    1
    17     4     5    1
    18    28    36    1
    19    30    33    1
    20    30    38    1
    21    31    34    1
    22    31    39    1
    23    32    35    1
    24    32    40    1
    25    41    43   ar
    26    15    19    2
    27    42    43   ar
    28    16    22    2
    29    17    12    1
    30    17    19   ar
    31    17    20   ar
    32    18    19   ar
    33    18    22   ar
    34    18    23    1
    35     9    10    1
    36     9    11    1
    37    10    12    1
    38    11     5    1
    39    33    34    1
    40    33    35    1
    41    34    36    1
    42    35    37    1
    43    37    43    1
    44    20    21   ar
    45    21    22   ar
@<TRIPOS>MOLECULE
UDP-glaA
 43 45 0 0 0
SMALL
GASTEIGER

@<TRIPOS>ATOM
      1 P          22.7469   70.9988    0.8114 P.3     1  UNL1        0.2189
      2 O          24.0843   70.4304    1.5225 O.3     1  UNL1       -0.4371
      3 O          21.5173   70.1631    1.0157 O.2     1  UNL1       -0.5170
      4 O          23.1916   71.2309   -0.7261 O.3     1  UNL1       -0.3112
      5 C          22.2694   71.8405   -1.6134 C.3     1  UNL1        0.1811
      6 O          21.7638   70.3984   -3.4678 O.3     1  UNL1       -0.3308
      7 O          23.2586   72.3673   -5.1650 O.3     1  UNL1       -0.3794
      8 O          20.6554   73.0120   -5.6580 O.3     1  UNL1       -0.3779
      9 C          22.4189   72.6033   -4.0351 C.3     1  UNL1        0.1713
     10 C          20.9646   72.4186   -4.4139 C.3     1  UNL1        0.1895
     11 C          22.6364   71.4685   -3.0429 C.3     1  UNL1        0.1764
     12 C          20.8350   70.9051   -4.4405 C.3     1  UNL1        0.2383
     13 H          24.1794   72.4583   -4.8659 H       1  UNL1        0.2105
     14 H          20.8678   73.9589   -5.5915 H       1  UNL1        0.2106
     15 O          18.7144   70.6425   -6.2869 O.2     1  UNL1       -0.2464
     16 O          15.8048   69.1974   -3.0181 O.2     1  UNL1       -0.2670
     17 N          19.5134   70.4619   -4.0996 N.ar    1  UNL1       -0.2551
     18 N          17.2668   69.9235   -4.6579 N.ar    1  UNL1       -0.2743
     19 C          18.5200   70.3656   -5.1019 C.ar    1  UNL1        0.3323
     20 C          19.2121   70.1282   -2.7838 C.ar    1  UNL1        0.0869
     21 C          18.0125   69.7078   -2.3764 C.ar    1  UNL1        0.0795
     22 C          16.9193   69.5805   -3.3605 C.ar    1  UNL1        0.2626
     23 H          16.5370   69.8472   -5.3612 H       1  UNL1        0.1734
     24 O          22.6412   72.5052    1.3902 O.3     1  UNL1       -0.2703
     25 P          23.7873   73.5918    1.7338 P.3     1  UNL1        0.2208
     26 O          23.5537   74.7421    0.6209 O.3     1  UNL1       -0.4371
     27 O          25.1800   73.0302    1.7621 O.2     1  UNL1       -0.5170
     28 O          23.3111   74.2635    3.1216 O.3     1  UNL1       -0.2858
     29 O          24.3747   74.4269    5.2291 O.3     1  UNL1       -0.3226
     30 O          20.3788   74.0179    6.2994 O.3     1  UNL1       -0.3794
     31 O          21.4983   72.4360    4.1199 O.3     1  UNL1       -0.3775
     32 O          22.7527   74.5878    7.5917 O.3     1  UNL1       -0.3792
     33 C          21.5087   74.4166    5.5282 C.3     1  UNL1        0.1718
     34 C          22.2830   73.1878    5.0397 C.3     1  UNL1        0.1968
     35 C          22.4143   75.2961    6.3947 C.3     1  UNL1        0.1723
     36 C          23.5910   73.6060    4.3567 C.3     1  UNL1        0.2706
     37 C          23.6989   75.6166    5.6337 C.3     1  UNL1        0.1830
     38 H          19.9214   74.8256    6.5889 H       1  UNL1        0.2105
     39 H          22.0316   71.6760    3.8320 H       1  UNL1        0.2106
     40 H          23.3976   73.8952    7.3690 H       1  UNL1        0.2106
     41 O          25.4102   75.5101    7.2349 O.co2   1  UNL1       -0.5466
     42 O          24.7875   77.5823    6.5171 O.co2   1  UNL1       -0.5466
     43 C          24.6698   76.3658    6.4898 C.2     1  UNL1        0.0799
@<TRIPOS>UNITY_ATOM_ATTR
41 1
charge -1
@<TRIPOS>BOND
     1     1     4    1
     2     1    24    1
     3     1     2    1
     4     1     3    2
     5    25    28    1
     6    25    24    1
     7    25    26    1
     8    25    27    2
     9     6    11    1
    10     6    12    1
    11    29    36    1
    12    29    37    1
    13     7     9    1
    14     7    13    1
    15     8    10    1
    16     8    14    1
    17     4     5    1
    18    28    36    1
    19    30    33    1
    20    30    38    1
    21    31    34    1
    22    31    39    1
    23    32    35    1
    24    32    40    1
    25    41    43   ar
    26    15    19    2
    27    42    43   ar
    28    16    22    2
    29    17    12    1
    30    17    19   ar
    31    17    20   ar
    32    18    19   ar
    33    18    22   ar
    34    18    23    1
    35     9    10    1
    36     9    11    1
    37    10    12    1
    38    11     5    1
    39    33    34    1
    40    33    35    1
    41    34    36    1
    42    35    37    1
    43    37    43    1
    44    20    21   ar
    45    21    22   ar
@<TRIPOS>MOLECULE
UDP-glaA
 43 45 0 0 0
SMALL
GASTEIGER

@<TRIPOS>ATOM
      1 P          20.9310   74.7603   -3.3449 P.3     1  UNL1        0.2189
      2 O          21.2650   75.0058   -1.7811 O.3     1  UNL1       -0.4371
      3 O          21.0097   75.9848   -4.2088 O.2     1  UNL1       -0.5170
      4 O          19.5009   74.0054   -3.3241 O.3     1  UNL1       -0.3112
      5 C          19.3238   72.8667   -4.1495 C.3     1  UNL1        0.1811
      6 O          17.3489   72.3921   -5.4335 O.3     1  UNL1       -0.3308
      7 O          16.3569   70.9219   -3.0158 O.3     1  UNL1       -0.3794
      8 O          17.2301   68.9010   -4.6249 O.3     1  UNL1       -0.3779
      9 C          17.6849   71.0232   -3.5294 C.3     1  UNL1        0.1713
     10 C          17.8343   70.1695   -4.7710 C.3     1  UNL1        0.1895
     11 C          17.8674   72.4292   -4.0856 C.3     1  UNL1        0.1764
     12 C          17.1515   71.0236   -5.8256 C.3     1  UNL1        0.2383
     13 H          16.2977   71.5139   -2.2466 H       1  UNL1        0.2105
     14 H          17.6484   68.4634   -3.8636 H       1  UNL1        0.2106
     15 O          15.6217   70.6373   -8.1677 O.2     1  UNL1       -0.2464
     16 O          19.3933   70.2794  -10.7918 O.2     1  UNL1       -0.2670
     17 N          17.7075   70.8277   -7.1339 N.ar    1  UNL1       -0.2551
     18 N          17.5008   70.4588   -9.4728 N.ar    1  UNL1       -0.2743
     19 C          16.8516   70.6417   -8.2447 C.ar    1  UNL1        0.3323
     20 C          19.0871   70.8208   -7.3069 C.ar    1  UNL1        0.0869
     21 C          19.6908   70.6457   -8.4845 C.ar    1  UNL1        0.0795
     22 C          18.8692   70.4438   -9.6944 C.ar    1  UNL1        0.2626
     23 H          16.9054   70.3226  -10.2852 H       1  UNL1        0.1734
     24 O          21.9585   73.5803   -3.7539 O.3     1  UNL1       -0.2703
     25 P          23.4980   73.3224   -3.3345 P.3     1  UNL1        0.2208
     26 O          24.1448   74.8045   -3.3670 O.3     1  UNL1       -0.4371
     27 O          24.2100   72.3163   -4.1927 O.2     1  UNL1       -0.5170
     28 O          23.4362   72.9380   -1.7685 O.3     1  UNL1       -0.2858
     29 O          23.8956   71.4383    0.0033 O.3     1  UNL1       -0.3226
     30 O          19.9181   70.5846   -0.8513 O.3     1  UNL1       -0.3794
     31 O          21.8257   71.0666   -3.0041 O.3     1  UNL1       -0.3775
     32 O          21.7428   69.8906    1.1028 O.3     1  UNL1       -0.3792
     33 C          21.1029   71.3621   -0.7027 C.3     1  UNL1        0.1718
     34 C          22.1978   70.8536   -1.6466 C.3     1  UNL1        0.1968
     35 C          21.5781   71.2679    0.7498 C.3     1  UNL1        0.1723
     36 C          23.5262   71.5698   -1.3733 C.3     1  UNL1        0.2706
     37 C          22.9225   71.9771    0.8969 C.3     1  UNL1        0.1830
     38 H          19.2551   70.9394   -0.2348 H       1  UNL1        0.2105
     39 H          22.5510   70.7389   -3.5621 H       1  UNL1        0.2106
     40 H          22.5449   69.5542    0.6685 H       1  UNL1        0.2106
     41 O          24.2584   70.6868    2.3303 O.co2   1  UNL1       -0.5466
     42 O          23.2888   72.5515    3.2133 O.co2   1  UNL1       -0.5466
     43 C          23.4876   71.7994    2.2703 C.2     1  UNL1        0.0799
@<TRIPOS>UNITY_ATOM_ATTR
41 1
charge -1
@<TRIPOS>BOND
     1     1     4    1
     2     1    24    1
     3     1     2    1
     4     1     3    2
     5    25    28    1
     6    25    24    1
     7    25    26    1
     8    25    27    2
     9     6    11    1
    10     6    12    1
    11    29    36    1
    12    29    37    1
    13     7     9    1
    14     7    13    1
    15     8    10    1
    16     8    14    1
    17     4     5    1
    18    28    36    1
    19    30    33    1
    20    30    38    1
    21    31    34    1
    22    31    39    1
    23    32    35    1
    24    32    40    1
    25    41    43   ar
    26    15    19    2
    27    42    43   ar
    28    16    22    2
    29    17    12    1
    30    17    19   ar
    31    17    20   ar
    32    18    19   ar
    33    18    22   ar
    34    18    23    1
    35     9    10    1
    36     9    11    1
    37    10    12    1
    38    11     5    1
    39    33    34    1
    40    33    35    1
    41    34    36    1
    42    35    37    1
    43    37    43    1
    44    20    21   ar
    45    21    22   ar
