@<TRIPOS>MOLECULE
GDU
 43 45 0 0 0
SMALL
GASTEIGER

@<TRIPOS>ATOM
      1 P          20.9285   71.5821   -2.0060 P.3     1  UNL1        0.2189
      2 O          22.1641   70.7895   -1.8193 O.2     1  UNL1       -0.5170
      3 O          21.3100   73.0528   -2.5392 O.3     1  UNL1       -0.4371
      4 O          19.9790   70.8518   -3.0792 O.3     1  UNL1       -0.3112
      5 C          18.8210   70.4061   -2.3715 C.3     1  UNL1        0.1811
      6 C          17.0996   70.4585   -5.5277 C.3     1  UNL1        0.2383
      7 C          16.9674   68.9941   -5.0366 C.3     1  UNL1        0.1895
      8 O          15.7493   68.4084   -5.5018 O.3     1  UNL1       -0.3779
      9 C          16.9439   69.1691   -3.4958 C.3     1  UNL1        0.1713
     10 C          17.5882   70.5488   -3.2659 C.3     1  UNL1        0.1764
     11 O          17.9747   71.0633   -4.5520 O.3     1  UNL1       -0.3308
     12 O          15.5997   69.1501   -3.0113 O.3     1  UNL1       -0.3794
     13 H          15.7286   67.5023   -5.1636 H       1  UNL1        0.2106
     14 H          15.2328   68.2846   -3.2369 H       1  UNL1        0.2105
     15 N          17.7027   70.5053   -6.8607 N.ar    1  UNL1       -0.2551
     16 C          16.9177   70.4388   -7.9505 C.ar    1  UNL1        0.3323
     17 N          17.4466   70.4834   -9.1875 N.ar    1  UNL1       -0.2743
     18 C          18.7793   70.5859   -9.3539 C.ar    1  UNL1        0.2626
     19 C          19.6190   70.6510   -8.2151 C.ar    1  UNL1        0.0795
     20 C          19.0620   70.6086   -6.9860 C.ar    1  UNL1        0.0869
     21 O          15.7137   70.3467   -7.8162 O.2     1  UNL1       -0.2464
     22 O          19.2593   70.6214  -10.4732 O.2     1  UNL1       -0.2670
     23 H          16.8647   70.4385   -9.9628 H       1  UNL1        0.1734
     24 O          20.1544   71.7066   -0.5997 O.3     1  UNL1       -0.2703
     25 P          21.2645   71.5713    0.5576 P.3     1  UNL1        0.2208
     26 O          21.5006   70.1402    0.8495 O.2     1  UNL1       -0.5170
     27 O          22.6387   72.2517    0.0649 O.3     1  UNL1       -0.4371
     28 O          20.7469   72.3132    1.8887 O.3     1  UNL1       -0.2858
     29 C          21.1944   73.6672    1.8097 C.3     1  UNL1        0.2704
     30 C          22.1228   73.9661    2.9879 C.3     1  UNL1        0.1967
     31 C          21.3630   73.7229    4.2956 C.3     1  UNL1        0.1715
     32 C          20.0640   74.5362    4.2661 C.3     1  UNL1        0.1694
     33 C          19.2903   74.1922    2.9909 C.3     1  UNL1        0.1761
     34 O          23.2632   73.1074    2.9285 O.3     1  UNL1       -0.3775
     35 O          22.1668   74.1375    5.4022 O.3     1  UNL1       -0.3794
     36 O          20.3728   75.9306    4.2819 O.3     1  UNL1       -0.3794
     37 O          20.0685   74.5409    1.8469 O.3     1  UNL1       -0.3258
     38 H          23.7057   73.2892    2.0882 H       1  UNL1        0.2106
     39 H          22.9751   73.6101    5.3740 H       1  UNL1        0.2105
     40 H          20.8632   76.0994    5.0969 H       1  UNL1        0.2105
     41 C          17.9746   74.9737    2.9682 C.3     1  UNL1        0.1693
     42 O          17.3892   74.8814    1.6683 O.3     1  UNL1       -0.3794
     43 H          16.5640   75.3851    1.6966 H       1  UNL1        0.2105
@<TRIPOS>BOND
     1    15    16   ar
     2    15    20   ar
     3    15     6    1
     4    16    17   ar
     5    16    21    2
     6    17    18   ar
     7    17    23    1
     8    18    19   ar
     9    18    22    2
    10    19    20   ar
    11     6     7    1
    12     6    11    1
    13     7     8    1
    14     7     9    1
    15     8    13    1
    16     9    10    1
    17     9    12    1
    18    10    11    1
    19    10     5    1
    20    12    14    1
    21     5     4    1
    22     4     1    1
    23     1     2    2
    24     1     3    1
    25     1    24    1
    26    24    25    1
    27    25    26    2
    28    25    27    1
    29    25    28    1
    30    28    29    1
    31    29    30    1
    32    29    37    1
    33    30    31    1
    34    30    34    1
    35    31    32    1
    36    31    35    1
    37    32    33    1
    38    32    36    1
    39    33    41    1
    40    33    37    1
    41    41    42    1
    42    34    38    1
    43    35    39    1
    44    36    40    1
    45    42    43    1
@<TRIPOS>MOLECULE
GDU
 43 45 0 0 0
SMALL
GASTEIGER

@<TRIPOS>ATOM
      1 P          20.9849   71.3174   -2.2415 P.3     1  UNL1        0.2189
      2 O          22.1893   70.5918   -2.7025 O.2     1  UNL1       -0.5170
      3 O          21.3125   72.8907   -2.1398 O.3     1  UNL1       -0.4371
      4 O          19.7851   71.0855   -3.2873 O.3     1  UNL1       -0.3112
      5 C          18.6062   70.8442   -2.5176 C.3     1  UNL1        0.1811
      6 C          16.9710   70.5237   -5.7036 C.3     1  UNL1        0.2383
      7 C          16.9687   69.0881   -5.1189 C.3     1  UNL1        0.1895
      8 O          15.8258   68.3564   -5.5680 O.3     1  UNL1       -0.3779
      9 C          16.8881   69.3585   -3.5939 C.3     1  UNL1        0.1713
     10 C          17.3892   70.8069   -3.4437 C.3     1  UNL1        0.1764
     11 O          17.7575   71.2733   -4.7533 O.3     1  UNL1       -0.3308
     12 O          15.5399   69.2384   -3.1358 O.3     1  UNL1       -0.3794
     13 H          15.8844   67.4763   -5.1707 H       1  UNL1        0.2106
     14 H          15.2647   68.3282   -3.3106 H       1  UNL1        0.2105
     15 N          17.6014   70.5439   -7.0246 N.ar    1  UNL1       -0.2551
     16 C          16.8379   70.4690   -8.1291 C.ar    1  UNL1        0.3323
     17 N          17.3922   70.4892   -9.3556 N.ar    1  UNL1       -0.2743
     18 C          18.7290   70.5752   -9.4963 C.ar    1  UNL1        0.2626
     19 C          19.5461   70.6490   -8.3417 C.ar    1  UNL1        0.0795
     20 C          18.9640   70.6312   -7.1238 C.ar    1  UNL1        0.0869
     21 O          15.6306   70.3914   -8.0179 O.2     1  UNL1       -0.2464
     22 O          19.2319   70.5887  -10.6060 O.2     1  UNL1       -0.2670
     23 H          16.8256   70.4385  -10.1418 H       1  UNL1        0.1734
     24 O          20.5495   70.7665   -0.7925 O.3     1  UNL1       -0.2703
     25 P          21.7778   71.0575    0.2057 P.3     1  UNL1        0.2208
     26 O          21.7457   70.0879    1.3228 O.2     1  UNL1       -0.5170
     27 O          23.1671   70.9069   -0.5951 O.3     1  UNL1       -0.4371
     28 O          21.6549   72.5528    0.7880 O.3     1  UNL1       -0.2858
     29 C          22.4227   72.5939    1.9916 C.3     1  UNL1        0.2704
     30 C          21.5578   73.1395    3.1289 C.3     1  UNL1        0.1967
     31 C          21.0658   74.5406    2.7532 C.3     1  UNL1        0.1715
     32 C          22.2780   75.4031    2.3842 C.3     1  UNL1        0.1694
     33 C          23.0878   74.6861    1.3010 C.3     1  UNL1        0.1761
     34 O          20.4379   72.2765    3.3348 O.3     1  UNL1       -0.3775
     35 O          20.3797   75.1224    3.8637 O.3     1  UNL1       -0.3794
     36 O          23.0912   75.6042    3.5410 O.3     1  UNL1       -0.3794
     37 O          23.5579   73.4349    1.8005 O.3     1  UNL1       -0.3258
     38 H          20.7939   71.4066    3.5614 H       1  UNL1        0.2106
     39 H          19.6351   74.5426    4.0676 H       1  UNL1        0.2105
     40 H          22.5401   76.0518    4.1962 H       1  UNL1        0.2105
     41 C          24.2824   75.5549    0.9007 C.3     1  UNL1        0.1693
     42 O          25.4187   75.1923    1.6870 O.3     1  UNL1       -0.3794
     43 H          26.1479   75.7610    1.4038 H       1  UNL1        0.2105
@<TRIPOS>BOND
     1    15    16   ar
     2    15    20   ar
     3    15     6    1
     4    16    17   ar
     5    16    21    2
     6    17    18   ar
     7    17    23    1
     8    18    19   ar
     9    18    22    2
    10    19    20   ar
    11     6     7    1
    12     6    11    1
    13     7     8    1
    14     7     9    1
    15     8    13    1
    16     9    10    1
    17     9    12    1
    18    10    11    1
    19    10     5    1
    20    12    14    1
    21     5     4    1
    22     4     1    1
    23     1     2    2
    24     1     3    1
    25     1    24    1
    26    24    25    1
    27    25    26    2
    28    25    27    1
    29    25    28    1
    30    28    29    1
    31    29    30    1
    32    29    37    1
    33    30    31    1
    34    30    34    1
    35    31    32    1
    36    31    35    1
    37    32    33    1
    38    32    36    1
    39    33    41    1
    40    33    37    1
    41    41    42    1
    42    34    38    1
    43    35    39    1
    44    36    40    1
    45    42    43    1
@<TRIPOS>MOLECULE
GDU
 43 45 0 0 0
SMALL
GASTEIGER

@<TRIPOS>ATOM
      1 P          23.0077   72.1834   -3.0417 P.3     1  UNL1        0.2189
      2 O          24.2223   71.6437   -3.6922 O.2     1  UNL1       -0.5170
      3 O          23.4303   73.2863   -1.9471 O.3     1  UNL1       -0.4371
      4 O          22.0615   72.8631   -4.1506 O.3     1  UNL1       -0.3112
      5 C          22.7483   72.7614   -5.3991 C.3     1  UNL1        0.1811
      6 C          19.6084   71.8775   -6.9114 C.3     1  UNL1        0.2383
      7 C          19.3712   73.2906   -6.3198 C.3     1  UNL1        0.1895
      8 O          18.4165   74.0156   -7.0983 O.3     1  UNL1       -0.3779
      9 C          20.7790   73.9311   -6.4342 C.3     1  UNL1        0.1713
     10 C          21.7312   72.7255   -6.5411 C.3     1  UNL1        0.1764
     11 O          20.9307   71.5346   -6.4451 O.3     1  UNL1       -0.3308
     12 O          20.8625   74.7484   -7.6034 O.3     1  UNL1       -0.3794
     13 H          18.3145   74.8814   -6.6789 H       1  UNL1        0.2106
     14 H          20.2036   75.4487   -7.5032 H       1  UNL1        0.2105
     15 N          18.6186   70.9286   -6.3988 N.ar    1  UNL1       -0.2551
     16 C          17.6659   70.4507   -7.2188 C.ar    1  UNL1        0.3323
     17 N          16.7461   69.5745   -6.7736 N.ar    1  UNL1       -0.2743
     18 C          16.7598   69.1680   -5.4895 C.ar    1  UNL1        0.2626
     19 C          17.7539   69.6675   -4.6129 C.ar    1  UNL1        0.0795
     20 C          18.6669   70.5419   -5.0865 C.ar    1  UNL1        0.0869
     21 O          17.6412   70.8078   -8.3798 O.2     1  UNL1       -0.2464
     22 O          15.9247   68.3787   -5.0844 O.2     1  UNL1       -0.2670
     23 H          16.0684   69.2365   -7.3804 H       1  UNL1        0.1734
     24 O          22.2119   70.9866   -2.3160 O.3     1  UNL1       -0.2703
     25 P          20.9778   71.6562   -1.5296 P.3     1  UNL1        0.2208
     26 O          20.2735   72.5978   -2.4277 O.2     1  UNL1       -0.5170
     27 O          19.9572   70.5049   -1.0532 O.3     1  UNL1       -0.4371
     28 O          21.5277   72.4504   -0.2424 O.3     1  UNL1       -0.2858
     29 C          21.3199   71.6028    0.8881 C.3     1  UNL1        0.2704
     30 C          21.0314   72.4604    2.1212 C.3     1  UNL1        0.1967
     31 C          22.2152   73.4023    2.3617 C.3     1  UNL1        0.1715
     32 C          23.4988   72.5675    2.4336 C.3     1  UNL1        0.1694
     33 C          23.6013   71.7026    1.1748 C.3     1  UNL1        0.1761
     34 O          19.8449   73.2262    1.9046 O.3     1  UNL1       -0.3775
     35 O          22.0273   74.1053    3.5917 O.3     1  UNL1       -0.3794
     36 O          23.4612   71.7320    3.5914 O.3     1  UNL1       -0.3794
     37 O          22.4868   70.8140    1.1093 O.3     1  UNL1       -0.3258
     38 H          19.1292   72.5945    1.7509 H       1  UNL1        0.2106
     39 H          21.2057   74.6051    3.5057 H       1  UNL1        0.2105
     40 H          23.3910   72.3174    4.3567 H       1  UNL1        0.2105
     41 C          24.8973   70.8901    1.2204 C.3     1  UNL1        0.1693
     42 O          24.7159   69.7528    2.0658 O.3     1  UNL1       -0.3794
     43 H          25.5530   69.2684    2.0667 H       1  UNL1        0.2105
@<TRIPOS>BOND
     1    15    16   ar
     2    15    20   ar
     3    15     6    1
     4    16    17   ar
     5    16    21    2
     6    17    18   ar
     7    17    23    1
     8    18    19   ar
     9    18    22    2
    10    19    20   ar
    11     6     7    1
    12     6    11    1
    13     7     8    1
    14     7     9    1
    15     8    13    1
    16     9    10    1
    17     9    12    1
    18    10    11    1
    19    10     5    1
    20    12    14    1
    21     5     4    1
    22     4     1    1
    23     1     2    2
    24     1     3    1
    25     1    24    1
    26    24    25    1
    27    25    26    2
    28    25    27    1
    29    25    28    1
    30    28    29    1
    31    29    30    1
    32    29    37    1
    33    30    31    1
    34    30    34    1
    35    31    32    1
    36    31    35    1
    37    32    33    1
    38    32    36    1
    39    33    41    1
    40    33    37    1
    41    41    42    1
    42    34    38    1
    43    35    39    1
    44    36    40    1
    45    42    43    1
@<TRIPOS>MOLECULE
GDU
 43 45 0 0 0
SMALL
GASTEIGER

@<TRIPOS>ATOM
      1 P          20.7005   71.2659   -1.4120 P.3     1  UNL1        0.2189
      2 O          20.6518   72.7333   -1.2278 O.2     1  UNL1       -0.5170
      3 O          21.4924   70.5965   -0.1800 O.3     1  UNL1       -0.4371
      4 O          19.2030   70.6817   -1.4683 O.3     1  UNL1       -0.3112
      5 C          19.1270   69.8491   -2.6264 C.3     1  UNL1        0.1811
      6 C          17.3028   70.3470   -5.6846 C.3     1  UNL1        0.2383
      7 C          16.9704   68.8920   -5.2657 C.3     1  UNL1        0.1895
      8 O          15.6591   68.5236   -5.6992 O.3     1  UNL1       -0.3779
      9 C          17.0383   68.9758   -3.7185 C.3     1  UNL1        0.1713
     10 C          17.8938   70.2276   -3.4487 C.3     1  UNL1        0.1764
     11 O          18.2998   70.7548   -4.7236 O.3     1  UNL1       -0.3308
     12 O          15.7284   69.1287   -3.1685 O.3     1  UNL1       -0.3794
     13 H          15.5152   67.6121   -5.4088 H       1  UNL1        0.2106
     14 H          15.2251   68.3428   -3.4209 H       1  UNL1        0.2105
     15 N          17.8497   70.3831   -7.0419 N.ar    1  UNL1       -0.2551
     16 C          17.0158   70.4334   -8.0957 C.ar    1  UNL1        0.3323
     17 N          17.4928   70.4709   -9.3538 N.ar    1  UNL1       -0.2743
     18 C          18.8206   70.4486   -9.5786 C.ar    1  UNL1        0.2626
     19 C          19.7109   70.3899   -8.4784 C.ar    1  UNL1        0.0795
     20 C          19.2059   70.3575   -7.2269 C.ar    1  UNL1        0.0869
     21 O          15.8155   70.4546   -7.9087 O.2     1  UNL1       -0.2464
     22 O          19.2532   70.4778  -10.7172 O.2     1  UNL1       -0.2670
     23 H          16.8765   70.5114  -10.1024 H       1  UNL1        0.1734
     24 O          21.4635   70.9237   -2.7879 O.3     1  UNL1       -0.2703
     25 P          22.7371   71.9040   -2.8715 P.3     1  UNL1        0.2208
     26 O          22.9864   72.5029   -1.5418 O.2     1  UNL1       -0.5170
     27 O          24.0315   71.0635   -3.3322 O.3     1  UNL1       -0.4371
     28 O          22.4480   73.0711   -3.9412 O.3     1  UNL1       -0.2858
     29 C          21.4471   72.5782   -4.8328 C.3     1  UNL1        0.2704
     30 C          21.8821   72.8322   -6.2770 C.3     1  UNL1        0.1967
     31 C          22.0916   74.3363   -6.4774 C.3     1  UNL1        0.1715
     32 C          20.8191   75.0709   -6.0406 C.3     1  UNL1        0.1694
     33 C          20.4657   74.6482   -4.6125 C.3     1  UNL1        0.1761
     34 O          23.1033   72.1383   -6.5381 O.3     1  UNL1       -0.3775
     35 O          22.3547   74.6050   -7.8562 O.3     1  UNL1       -0.3794
     36 O          19.7470   74.7351   -6.9226 O.3     1  UNL1       -0.3794
     37 O          20.2134   73.2444   -4.5745 O.3     1  UNL1       -0.3258
     38 H          22.9269   71.1988   -6.3931 H       1  UNL1        0.2106
     39 H          23.1534   74.1151   -8.0893 H       1  UNL1        0.2105
     40 H          20.0154   75.0133   -7.8079 H       1  UNL1        0.2105
     41 C          19.2154   75.4021   -4.1540 C.3     1  UNL1        0.1693
     42 O          19.6021   76.5307   -3.3681 O.3     1  UNL1       -0.3794
     43 H          18.7874   76.9777   -3.1003 H       1  UNL1        0.2105
@<TRIPOS>BOND
     1    15    16   ar
     2    15    20   ar
     3    15     6    1
     4    16    17   ar
     5    16    21    2
     6    17    18   ar
     7    17    23    1
     8    18    19   ar
     9    18    22    2
    10    19    20   ar
    11     6     7    1
    12     6    11    1
    13     7     8    1
    14     7     9    1
    15     8    13    1
    16     9    10    1
    17     9    12    1
    18    10    11    1
    19    10     5    1
    20    12    14    1
    21     5     4    1
    22     4     1    1
    23     1     2    2
    24     1     3    1
    25     1    24    1
    26    24    25    1
    27    25    26    2
    28    25    27    1
    29    25    28    1
    30    28    29    1
    31    29    30    1
    32    29    37    1
    33    30    31    1
    34    30    34    1
    35    31    32    1
    36    31    35    1
    37    32    33    1
    38    32    36    1
    39    33    41    1
    40    33    37    1
    41    41    42    1
    42    34    38    1
    43    35    39    1
    44    36    40    1
    45    42    43    1
@<TRIPOS>MOLECULE
GDU
 43 45 0 0 0
SMALL
GASTEIGER

@<TRIPOS>ATOM
      1 P          21.0644   71.1155   -3.5119 P.3     1  UNL1        0.2189
      2 O          22.0526   71.0931   -2.4108 O.2     1  UNL1       -0.5170
      3 O          20.7050   69.6058   -3.9413 O.3     1  UNL1       -0.4371
      4 O          19.7294   71.8658   -3.0202 O.3     1  UNL1       -0.3112
      5 C          18.8211   70.8522   -2.5863 C.3     1  UNL1        0.1811
      6 C          17.1048   70.5867   -5.7345 C.3     1  UNL1        0.2383
      7 C          17.0676   69.1519   -5.1488 C.3     1  UNL1        0.1895
      8 O          15.8910   68.4590   -5.5715 O.3     1  UNL1       -0.3779
      9 C          17.0304   69.4249   -3.6225 C.3     1  UNL1        0.1713
     10 C          17.5830   70.8557   -3.4847 C.3     1  UNL1        0.1764
     11 O          17.9372   71.3095   -4.8026 O.3     1  UNL1       -0.3308
     12 O          15.6896   69.3501   -3.1341 O.3     1  UNL1       -0.3794
     13 H          15.9289   67.5774   -5.1749 H       1  UNL1        0.2106
     14 H          15.3802   68.4497   -3.3020 H       1  UNL1        0.2105
     15 N          17.7056   70.5858   -7.0693 N.ar    1  UNL1       -0.2551
     16 C          16.9167   70.5088   -8.1556 C.ar    1  UNL1        0.3323
     17 N          17.4436   70.5097   -9.3943 N.ar    1  UNL1       -0.2743
     18 C          18.7778   70.5781   -9.5657 C.ar    1  UNL1        0.2626
     19 C          19.6214   70.6539   -8.4305 C.ar    1  UNL1        0.0795
     20 C          19.0666   70.6555   -7.1998 C.ar    1  UNL1        0.0869
     21 O          15.7113   70.4470   -8.0168 O.2     1  UNL1       -0.2464
     22 O          19.2558   70.5742  -10.6864 O.2     1  UNL1       -0.2670
     23 H          16.8590   70.4578  -10.1672 H       1  UNL1        0.1734
     24 O          21.6868   71.8973   -4.7744 O.3     1  UNL1       -0.2703
     25 P          22.8826   72.8155   -4.2114 P.3     1  UNL1        0.2208
     26 O          22.4075   73.5774   -3.0355 O.2     1  UNL1       -0.5170
     27 O          24.1200   71.8793   -3.7794 O.3     1  UNL1       -0.4371
     28 O          23.3603   73.8389   -5.3579 O.3     1  UNL1       -0.2858
     29 C          22.2325   74.6520   -5.6845 C.3     1  UNL1        0.2704
     30 C          22.0637   74.7018   -7.2039 C.3     1  UNL1        0.1967
     31 C          23.3406   75.2719   -7.8290 C.3     1  UNL1        0.1715
     32 C          23.6541   76.6165   -7.1631 C.3     1  UNL1        0.1694
     33 C          23.7043   76.4208   -5.6458 C.3     1  UNL1        0.1761
     34 O          21.8319   73.3834   -7.7032 O.3     1  UNL1       -0.3775
     35 O          23.1448   75.4622   -9.2318 O.3     1  UNL1       -0.3794
     36 O          22.6366   77.5625   -7.4943 O.3     1  UNL1       -0.3794
     37 O          22.4350   75.9686   -5.1765 O.3     1  UNL1       -0.3258
     38 H          21.0248   73.0621   -7.2786 H       1  UNL1        0.2106
     39 H          22.9391   74.5961   -9.6057 H       1  UNL1        0.2105
     40 H          22.6375   77.6492   -8.4565 H       1  UNL1        0.2105
     41 C          24.0507   77.7509   -4.9729 C.3     1  UNL1        0.1693
     42 O          25.3037   78.2235   -5.4706 O.3     1  UNL1       -0.3794
     43 H          25.4845   79.0616   -5.0232 H       1  UNL1        0.2105
@<TRIPOS>BOND
     1    15    16   ar
     2    15    20   ar
     3    15     6    1
     4    16    17   ar
     5    16    21    2
     6    17    18   ar
     7    17    23    1
     8    18    19   ar
     9    18    22    2
    10    19    20   ar
    11     6     7    1
    12     6    11    1
    13     7     8    1
    14     7     9    1
    15     8    13    1
    16     9    10    1
    17     9    12    1
    18    10    11    1
    19    10     5    1
    20    12    14    1
    21     5     4    1
    22     4     1    1
    23     1     2    2
    24     1     3    1
    25     1    24    1
    26    24    25    1
    27    25    26    2
    28    25    27    1
    29    25    28    1
    30    28    29    1
    31    29    30    1
    32    29    37    1
    33    30    31    1
    34    30    34    1
    35    31    32    1
    36    31    35    1
    37    32    33    1
    38    32    36    1
    39    33    41    1
    40    33    37    1
    41    41    42    1
    42    34    38    1
    43    35    39    1
    44    36    40    1
    45    42    43    1
@<TRIPOS>MOLECULE
GDU
 43 45 0 0 0
SMALL
GASTEIGER

@<TRIPOS>ATOM
      1 P          21.1007   71.4646   -2.2080 P.3     1  UNL1        0.2189
      2 O          22.3699   70.7209   -2.3684 O.2     1  UNL1       -0.5170
      3 O          21.3529   73.0268   -2.5058 O.3     1  UNL1       -0.4371
      4 O          20.0082   70.8911   -3.2396 O.3     1  UNL1       -0.3112
      5 C          18.8419   70.5791   -2.4761 C.3     1  UNL1        0.1811
      6 C          17.1158   70.5027   -5.6292 C.3     1  UNL1        0.2383
      7 C          17.0181   69.0501   -5.0969 C.3     1  UNL1        0.1895
      8 O          15.8134   68.4234   -5.5430 O.3     1  UNL1       -0.3779
      9 C          16.9926   69.2678   -3.5615 C.3     1  UNL1        0.1713
     10 C          17.6050   70.6680   -3.3718 C.3     1  UNL1        0.1764
     11 O          17.9779   71.1548   -4.6727 O.3     1  UNL1       -0.3308
     12 O          15.6498   69.2315   -3.0741 O.3     1  UNL1       -0.3794
     13 H          15.8142   67.5269   -5.1794 H       1  UNL1        0.2106
     14 H          15.3028   68.3516   -3.2746 H       1  UNL1        0.2105
     15 N          17.7159   70.5258   -6.9642 N.ar    1  UNL1       -0.2551
     16 C          16.9278   70.4494   -8.0511 C.ar    1  UNL1        0.3323
     17 N          17.4540   70.4722   -9.2898 N.ar    1  UNL1       -0.2743
     18 C          18.7870   70.5624   -9.4608 C.ar    1  UNL1        0.2626
     19 C          19.6299   70.6378   -8.3250 C.ar    1  UNL1        0.0795
     20 C          19.0756   70.6173   -7.0942 C.ar    1  UNL1        0.0869
     21 O          15.7235   70.3681   -7.9126 O.2     1  UNL1       -0.2464
     22 O          19.2646   70.5783  -10.5816 O.2     1  UNL1       -0.2670
     23 H          16.8699   70.4204  -10.0630 H       1  UNL1        0.1734
     24 O          20.5627   71.2870   -0.7008 O.3     1  UNL1       -0.2703
     25 P          21.8523   71.3157    0.2615 P.3     1  UNL1        0.2208
     26 O          21.8357   70.1281    1.1437 O.2     1  UNL1       -0.5170
     27 O          23.1906   71.2992   -0.6345 O.3     1  UNL1       -0.4371
     28 O          21.8247   72.6519    1.1580 O.3     1  UNL1       -0.2858
     29 C          20.5389   72.7099    1.7768 C.3     1  UNL1        0.2704
     30 C          19.8073   73.9707    1.3136 C.3     1  UNL1        0.1967
     31 C          20.6435   75.1983    1.6879 C.3     1  UNL1        0.1715
     32 C          20.9564   75.1394    3.1874 C.3     1  UNL1        0.1694
     33 C          21.6031   73.7897    3.5083 C.3     1  UNL1        0.1761
     34 O          19.6271   73.9263   -0.1030 O.3     1  UNL1       -0.3775
     35 O          19.9078   76.3880    1.3949 O.3     1  UNL1       -0.3794
     36 O          19.7474   75.2849    3.9338 O.3     1  UNL1       -0.3794
     37 O          20.6959   72.7343    3.1936 O.3     1  UNL1       -0.3258
     38 H          19.1031   73.1362   -0.2929 H       1  UNL1        0.2106
     39 H          19.7235   76.3767    0.4472 H       1  UNL1        0.2105
     40 H          19.3734   76.1434    3.6962 H       1  UNL1        0.2105
     41 C          21.9510   73.7340    4.9975 C.3     1  UNL1        0.1693
     42 O          22.3654   72.4103    5.3398 O.3     1  UNL1       -0.3794
     43 H          22.5757   72.4182    6.2838 H       1  UNL1        0.2105
@<TRIPOS>BOND
     1    15    16   ar
     2    15    20   ar
     3    15     6    1
     4    16    17   ar
     5    16    21    2
     6    17    18   ar
     7    17    23    1
     8    18    19   ar
     9    18    22    2
    10    19    20   ar
    11     6     7    1
    12     6    11    1
    13     7     8    1
    14     7     9    1
    15     8    13    1
    16     9    10    1
    17     9    12    1
    18    10    11    1
    19    10     5    1
    20    12    14    1
    21     5     4    1
    22     4     1    1
    23     1     2    2
    24     1     3    1
    25     1    24    1
    26    24    25    1
    27    25    26    2
    28    25    27    1
    29    25    28    1
    30    28    29    1
    31    29    30    1
    32    29    37    1
    33    30    31    1
    34    30    34    1
    35    31    32    1
    36    31    35    1
    37    32    33    1
    38    32    36    1
    39    33    41    1
    40    33    37    1
    41    41    42    1
    42    34    38    1
    43    35    39    1
    44    36    40    1
    45    42    43    1
@<TRIPOS>MOLECULE
GDU
 43 45 0 0 0
SMALL
GASTEIGER

@<TRIPOS>ATOM
      1 P          20.4841   71.1648   -1.6476 P.3     1  UNL1        0.2189
      2 O          21.0178   70.5723   -0.4011 O.2     1  UNL1       -0.5170
      3 O          21.2746   70.5569   -2.9119 O.3     1  UNL1       -0.4371
      4 O          18.9183   70.8212   -1.7779 O.3     1  UNL1       -0.3112
      5 C          18.3271   71.8700   -2.5467 C.3     1  UNL1        0.1811
      6 C          17.0065   70.5574   -5.6224 C.3     1  UNL1        0.2383
      7 C          17.4599   69.3058   -4.8281 C.3     1  UNL1        0.1895
      8 O          16.6417   68.1772   -5.1441 O.3     1  UNL1       -0.3779
      9 C          17.2395   69.7551   -3.3602 C.3     1  UNL1        0.1713
     10 C          17.2255   71.2931   -3.4376 C.3     1  UNL1        0.1764
     11 O          17.4648   71.6575   -4.8081 O.3     1  UNL1       -0.3308
     12 O          15.9921   69.2610   -2.8684 O.3     1  UNL1       -0.3794
     13 H          16.9748   67.4356   -4.6197 H       1  UNL1        0.2106
     14 H          16.0412   68.2959   -2.8998 H       1  UNL1        0.2105
     15 N          17.6413   70.5921   -6.9409 N.ar    1  UNL1       -0.2551
     16 C          16.8862   70.4787   -8.0478 C.ar    1  UNL1        0.3323
     17 N          17.4445   70.5111   -9.2722 N.ar    1  UNL1       -0.2743
     18 C          18.7775   70.6485   -9.4082 C.ar    1  UNL1        0.2626
     19 C          19.5861   70.7632   -8.2509 C.ar    1  UNL1        0.0795
     20 C          18.9998   70.7319   -7.0353 C.ar    1  UNL1        0.0869
     21 O          15.6823   70.3546   -7.9410 O.2     1  UNL1       -0.2464
     22 O          19.2844   70.6731  -10.5159 O.2     1  UNL1       -0.2670
     23 H          16.8838   70.4321  -10.0603 H       1  UNL1        0.1734
     24 O          20.6830   72.7621   -1.6094 O.3     1  UNL1       -0.2703
     25 P          20.8085   73.1799   -0.0604 P.3     1  UNL1        0.2208
     26 O          20.1144   74.4677    0.1608 O.2     1  UNL1       -0.5170
     27 O          20.1333   72.0423    0.8584 O.3     1  UNL1       -0.4371
     28 O          22.3620   73.3322    0.3314 O.3     1  UNL1       -0.2858
     29 C          22.4486   73.1856    1.7494 C.3     1  UNL1        0.2704
     30 C          23.0924   74.4353    2.3521 C.3     1  UNL1        0.1967
     31 C          24.4847   74.6227    1.7416 C.3     1  UNL1        0.1715
     32 C          25.2798   73.3253    1.9271 C.3     1  UNL1        0.1694
     33 C          24.4703   72.1592    1.3544 C.3     1  UNL1        0.1761
     34 O          22.2837   75.5771    2.0629 O.3     1  UNL1       -0.3775
     35 O          25.1567   75.6987    2.3997 O.3     1  UNL1       -0.3794
     36 O          25.5217   73.1079    3.3179 O.3     1  UNL1       -0.3794
     37 O          23.2358   72.0381    2.0596 O.3     1  UNL1       -0.3258
     38 H          21.4171   75.4126    2.4588 H       1  UNL1        0.2106
     39 H          24.6170   76.4883    2.2674 H       1  UNL1        0.2105
     40 H          26.0274   73.8671    3.6360 H       1  UNL1        0.2105
     41 C          25.2704   70.8633    1.5037 C.3     1  UNL1        0.1693
     42 O          24.8764   70.1969    2.7045 O.3     1  UNL1       -0.3794
     43 H          25.4021   69.3871    2.7605 H       1  UNL1        0.2105
@<TRIPOS>BOND
     1    15    16   ar
     2    15    20   ar
     3    15     6    1
     4    16    17   ar
     5    16    21    2
     6    17    18   ar
     7    17    23    1
     8    18    19   ar
     9    18    22    2
    10    19    20   ar
    11     6     7    1
    12     6    11    1
    13     7     8    1
    14     7     9    1
    15     8    13    1
    16     9    10    1
    17     9    12    1
    18    10    11    1
    19    10     5    1
    20    12    14    1
    21     5     4    1
    22     4     1    1
    23     1     2    2
    24     1     3    1
    25     1    24    1
    26    24    25    1
    27    25    26    2
    28    25    27    1
    29    25    28    1
    30    28    29    1
    31    29    30    1
    32    29    37    1
    33    30    31    1
    34    30    34    1
    35    31    32    1
    36    31    35    1
    37    32    33    1
    38    32    36    1
    39    33    41    1
    40    33    37    1
    41    41    42    1
    42    34    38    1
    43    35    39    1
    44    36    40    1
    45    42    43    1
@<TRIPOS>MOLECULE
GDU
 43 45 0 0 0
SMALL
GASTEIGER

@<TRIPOS>ATOM
      1 P          20.3944   72.8731   -2.9056 P.3     1  UNL1        0.2189
      2 O          19.7248   74.0084   -3.5781 O.2     1  UNL1       -0.5170
      3 O          20.1935   72.9987   -1.3128 O.3     1  UNL1       -0.4371
      4 O          19.7536   71.4904   -3.4199 O.3     1  UNL1       -0.3112
      5 C          18.5819   71.2605   -2.6357 C.3     1  UNL1        0.1811
      6 C          16.9981   70.5818   -5.7914 C.3     1  UNL1        0.2383
      7 C          17.0898   69.1991   -5.0967 C.3     1  UNL1        0.1895
      8 O          16.0035   68.3576   -5.4904 O.3     1  UNL1       -0.3779
      9 C          16.9786   69.5807   -3.5976 C.3     1  UNL1        0.1713
     10 C          17.3778   71.0675   -3.5592 C.3     1  UNL1        0.1764
     11 O          17.7236   71.4553   -4.9002 O.3     1  UNL1       -0.3308
     12 O          15.6382   69.4035   -3.1350 O.3     1  UNL1       -0.3794
     13 H          16.1192   67.5171   -5.0257 H       1  UNL1        0.2106
     14 H          15.4276   68.4657   -3.2391 H       1  UNL1        0.2105
     15 N          17.6361   70.5432   -7.1083 N.ar    1  UNL1       -0.2551
     16 C          16.8760   70.5388   -8.2176 C.ar    1  UNL1        0.3323
     17 N          17.4376   70.5071   -9.4405 N.ar    1  UNL1       -0.2743
     18 C          18.7775   70.4691   -9.5727 C.ar    1  UNL1        0.2626
     19 C          19.5906   70.4674   -8.4128 C.ar    1  UNL1        0.0795
     20 C          19.0015   70.5039   -7.1987 C.ar    1  UNL1        0.0869
     21 O          15.6660   70.5733   -8.1143 O.2     1  UNL1       -0.2464
     22 O          19.2866   70.4356  -10.6791 O.2     1  UNL1       -0.2670
     23 H          16.8739   70.5088  -10.2304 H       1  UNL1        0.1734
     24 O          21.9670   72.8982   -3.2503 O.3     1  UNL1       -0.2703
     25 P          22.6452   71.6955   -2.4234 P.3     1  UNL1        0.2208
     26 O          21.7813   70.4967   -2.4989 O.2     1  UNL1       -0.5170
     27 O          24.0879   71.3573   -3.0547 O.3     1  UNL1       -0.4371
     28 O          22.8233   72.1339   -0.8852 O.3     1  UNL1       -0.2858
     29 C          22.9736   70.9334   -0.1263 C.3     1  UNL1        0.2704
     30 C          21.8303   70.8230    0.8836 C.3     1  UNL1        0.1967
     31 C          21.8551   72.0494    1.8009 C.3     1  UNL1        0.1715
     32 C          23.2552   72.1760    2.4120 C.3     1  UNL1        0.1694
     33 C          24.2911   72.1859    1.2851 C.3     1  UNL1        0.1761
     34 O          20.5825   70.7676    0.1898 O.3     1  UNL1       -0.3775
     35 O          20.8874   71.8910    2.8406 O.3     1  UNL1       -0.3794
     36 O          23.4987   71.0696    3.2818 O.3     1  UNL1       -0.3794
     37 O          24.2237   70.9596    0.5587 O.3     1  UNL1       -0.3258
     38 H          20.6143   69.9866   -0.3794 H       1  UNL1        0.2106
     39 H          20.0270   71.8035    2.4112 H       1  UNL1        0.2105
     40 H          22.8215   71.1003    3.9700 H       1  UNL1        0.2105
     41 C          25.6907   72.3465    1.8827 C.3     1  UNL1        0.1693
     42 O          26.2107   71.0614    2.2280 O.3     1  UNL1       -0.3794
     43 H          27.0918   71.2065    2.5993 H       1  UNL1        0.2105
@<TRIPOS>BOND
     1    15    16   ar
     2    15    20   ar
     3    15     6    1
     4    16    17   ar
     5    16    21    2
     6    17    18   ar
     7    17    23    1
     8    18    19   ar
     9    18    22    2
    10    19    20   ar
    11     6     7    1
    12     6    11    1
    13     7     8    1
    14     7     9    1
    15     8    13    1
    16     9    10    1
    17     9    12    1
    18    10    11    1
    19    10     5    1
    20    12    14    1
    21     5     4    1
    22     4     1    1
    23     1     2    2
    24     1     3    1
    25     1    24    1
    26    24    25    1
    27    25    26    2
    28    25    27    1
    29    25    28    1
    30    28    29    1
    31    29    30    1
    32    29    37    1
    33    30    31    1
    34    30    34    1
    35    31    32    1
    36    31    35    1
    37    32    33    1
    38    32    36    1
    39    33    41    1
    40    33    37    1
    41    41    42    1
    42    34    38    1
    43    35    39    1
    44    36    40    1
    45    42    43    1
@<TRIPOS>MOLECULE
GDU
 43 45 0 0 0
SMALL
GASTEIGER

@<TRIPOS>ATOM
      1 P          20.4335   72.6521   -1.1871 P.3     1  UNL1        0.2189
      2 O          20.1062   74.0901   -1.3073 O.2     1  UNL1       -0.5170
      3 O          19.2934   71.9128   -0.3229 O.3     1  UNL1       -0.4371
      4 O          20.5075   71.9938   -2.6527 O.3     1  UNL1       -0.3112
      5 C          19.7441   70.7874   -2.6034 C.3     1  UNL1        0.1811
      6 C          17.6030   70.7761   -5.4918 C.3     1  UNL1        0.2383
      7 C          17.4009   69.3786   -4.8522 C.3     1  UNL1        0.1895
      8 O          16.0779   68.8940   -5.0931 O.3     1  UNL1       -0.3779
      9 C          17.6148   69.6769   -3.3453 C.3     1  UNL1        0.1713
     10 C          18.4159   70.9921   -3.3342 C.3     1  UNL1        0.1764
     11 O          18.6629   71.3575   -4.7031 O.3     1  UNL1       -0.3308
     12 O          16.3581   69.8433   -2.6857 O.3     1  UNL1       -0.3794
     13 H          16.0181   68.0253   -4.6717 H       1  UNL1        0.2106
     14 H          15.8806   69.0077   -2.7780 H       1  UNL1        0.2105
     15 N          18.0112   70.6508   -6.8919 N.ar    1  UNL1       -0.2551
     16 C          17.0764   70.6059   -7.8576 C.ar    1  UNL1        0.3323
     17 N          17.4252   70.4945   -9.1529 N.ar    1  UNL1       -0.2743
     18 C          18.7234   70.4160   -9.5033 C.ar    1  UNL1        0.2626
     19 C          19.7187   70.4562   -8.4963 C.ar    1  UNL1        0.0795
     20 C          19.3415   70.5727   -7.2054 C.ar    1  UNL1        0.0869
     21 O          15.9014   70.6761   -7.5570 O.2     1  UNL1       -0.2464
     22 O          19.0398   70.3103  -10.6751 O.2     1  UNL1       -0.2670
     23 H          16.7375   70.4679   -9.8371 H       1  UNL1        0.1734
     24 O          21.8555   72.4861   -0.4504 O.3     1  UNL1       -0.2703
     25 P          21.5706   71.7548    0.9546 P.3     1  UNL1        0.2208
     26 O          20.4350   72.4168    1.6338 O.2     1  UNL1       -0.5170
     27 O          21.2092   70.2076    0.6904 O.3     1  UNL1       -0.4371
     28 O          22.8810   71.8472    1.8844 O.3     1  UNL1       -0.2858
     29 C          23.8765   72.5406    1.1307 C.3     1  UNL1        0.2704
     30 C          25.1867   71.7526    1.1716 C.3     1  UNL1        0.1967
     31 C          25.6267   71.5920    2.6300 C.3     1  UNL1        0.1715
     32 C          25.6788   72.9785    3.2816 C.3     1  UNL1        0.1694
     33 C          24.3295   73.6732    3.0823 C.3     1  UNL1        0.1761
     34 O          24.9893   70.4648    0.5851 O.3     1  UNL1       -0.3775
     35 O          26.9210   70.9877    2.6773 O.3     1  UNL1       -0.3794
     36 O          26.7145   73.7528    2.6753 O.3     1  UNL1       -0.3794
     37 O          24.0742   73.8378    1.6881 O.3     1  UNL1       -0.3258
     38 H          24.7070   70.6143   -0.3275 H       1  UNL1        0.2106
     39 H          26.8436   70.1266    2.2474 H       1  UNL1        0.2105
     40 H          27.5420   73.2758    2.8202 H       1  UNL1        0.2105
     41 C          24.3593   75.0453    3.7592 C.3     1  UNL1        0.1693
     42 O          23.3460   75.8775    3.1920 O.3     1  UNL1       -0.3794
     43 H          23.3978   76.7302    3.6453 H       1  UNL1        0.2105
@<TRIPOS>BOND
     1    15    16   ar
     2    15    20   ar
     3    15     6    1
     4    16    17   ar
     5    16    21    2
     6    17    18   ar
     7    17    23    1
     8    18    19   ar
     9    18    22    2
    10    19    20   ar
    11     6     7    1
    12     6    11    1
    13     7     8    1
    14     7     9    1
    15     8    13    1
    16     9    10    1
    17     9    12    1
    18    10    11    1
    19    10     5    1
    20    12    14    1
    21     5     4    1
    22     4     1    1
    23     1     2    2
    24     1     3    1
    25     1    24    1
    26    24    25    1
    27    25    26    2
    28    25    27    1
    29    25    28    1
    30    28    29    1
    31    29    30    1
    32    29    37    1
    33    30    31    1
    34    30    34    1
    35    31    32    1
    36    31    35    1
    37    32    33    1
    38    32    36    1
    39    33    41    1
    40    33    37    1
    41    41    42    1
    42    34    38    1
    43    35    39    1
    44    36    40    1
    45    42    43    1
@<TRIPOS>MOLECULE
GDU
 43 45 0 0 0
SMALL
GASTEIGER

@<TRIPOS>ATOM
      1 P          20.5159   71.0620   -1.6020 P.3     1  UNL1        0.2189
      2 O          20.4968   72.5416   -1.6138 O.2     1  UNL1       -0.5170
      3 O          20.8237   70.5414   -0.1096 O.3     1  UNL1       -0.4371
      4 O          19.0862   70.5026   -2.0813 O.3     1  UNL1       -0.3112
      5 C          18.2893   71.6389   -2.4191 C.3     1  UNL1        0.1811
      6 C          16.9494   70.6075   -5.5921 C.3     1  UNL1        0.2383
      7 C          17.2576   69.2816   -4.8504 C.3     1  UNL1        0.1895
      8 O          16.3472   68.2528   -5.2453 O.3     1  UNL1       -0.3779
      9 C          17.0338   69.6791   -3.3681 C.3     1  UNL1        0.1713
     10 C          17.1672   71.2133   -3.3677 C.3     1  UNL1        0.1764
     11 O          17.4832   71.6184   -4.7110 O.3     1  UNL1       -0.3308
     12 O          15.7305   69.2834   -2.9360 O.3     1  UNL1       -0.3794
     13 H          16.5922   67.4586   -4.7504 H       1  UNL1        0.2106
     14 H          15.6895   68.3207   -3.0150 H       1  UNL1        0.2105
     15 N          17.6262   70.6445   -6.8896 N.ar    1  UNL1       -0.2551
     16 C          16.9086   70.5189   -8.0199 C.ar    1  UNL1        0.3323
     17 N          17.5061   70.5532   -9.2256 N.ar    1  UNL1       -0.2743
     18 C          18.8412   70.7047   -9.3189 C.ar    1  UNL1        0.2626
     19 C          19.6105   70.8325   -8.1365 C.ar    1  UNL1        0.0795
     20 C          18.9855   70.7990   -6.9404 C.ar    1  UNL1        0.0869
     21 O          15.7034   70.3820   -7.9516 O.2     1  UNL1       -0.2464
     22 O          19.3834   70.7310  -10.4097 O.2     1  UNL1       -0.2670
     23 H          16.9721   70.4653  -10.0312 H       1  UNL1        0.1734
     24 O          21.6628   70.5331   -2.6006 O.3     1  UNL1       -0.2703
     25 P          22.9824   71.4034   -2.2983 P.3     1  UNL1        0.2208
     26 O          23.2099   71.4629   -0.8376 O.2     1  UNL1       -0.5170
     27 O          24.2529   70.7165   -3.0112 O.3     1  UNL1       -0.4371
     28 O          22.7870   72.8938   -2.8732 O.3     1  UNL1       -0.2858
     29 C          23.9794   73.2230   -3.5870 C.3     1  UNL1        0.2704
     30 C          24.3403   74.6865   -3.3279 C.3     1  UNL1        0.1967
     31 C          23.1769   75.5745   -3.7799 C.3     1  UNL1        0.1715
     32 C          22.8374   75.2342   -5.2354 C.3     1  UNL1        0.1694
     33 C          22.5884   73.7282   -5.3494 C.3     1  UNL1        0.1761
     34 O          24.5788   74.8810   -1.9327 O.3     1  UNL1       -0.3775
     35 O          23.5556   76.9490   -3.6814 O.3     1  UNL1       -0.3794
     36 O          23.9266   75.6085   -6.0801 O.3     1  UNL1       -0.3794
     37 O          23.7688   73.0159   -4.9817 O.3     1  UNL1       -0.3258
     38 H          25.3120   74.2988   -1.6912 H       1  UNL1        0.2106
     39 H          23.7709   77.1143   -2.7549 H       1  UNL1        0.2105
     40 H          24.0505   76.5605   -5.9717 H       1  UNL1        0.2105
     41 C          22.2149   73.3826   -6.7927 C.3     1  UNL1        0.1693
     42 O          22.8390   72.1521   -7.1637 O.3     1  UNL1       -0.3794
     43 H          22.5783   71.9704   -8.0771 H       1  UNL1        0.2105
@<TRIPOS>BOND
     1    15    16   ar
     2    15    20   ar
     3    15     6    1
     4    16    17   ar
     5    16    21    2
     6    17    18   ar
     7    17    23    1
     8    18    19   ar
     9    18    22    2
    10    19    20   ar
    11     6     7    1
    12     6    11    1
    13     7     8    1
    14     7     9    1
    15     8    13    1
    16     9    10    1
    17     9    12    1
    18    10    11    1
    19    10     5    1
    20    12    14    1
    21     5     4    1
    22     4     1    1
    23     1     2    2
    24     1     3    1
    25     1    24    1
    26    24    25    1
    27    25    26    2
    28    25    27    1
    29    25    28    1
    30    28    29    1
    31    29    30    1
    32    29    37    1
    33    30    31    1
    34    30    34    1
    35    31    32    1
    36    31    35    1
    37    32    33    1
    38    32    36    1
    39    33    41    1
    40    33    37    1
    41    41    42    1
    42    34    38    1
    43    35    39    1
    44    36    40    1
    45    42    43    1
@<TRIPOS>MOLECULE
GDU
 43 45 0 0 0
SMALL
GASTEIGER

@<TRIPOS>ATOM
      1 P          16.5312   69.6335   -2.3527 P.3     1  UNL1        0.2189
      2 O          17.8913   69.0958   -2.1273 O.2     1  UNL1       -0.5170
      3 O          16.0511   69.2696   -3.8461 O.3     1  UNL1       -0.4371
      4 O          15.5142   68.9846   -1.2890 O.3     1  UNL1       -0.3112
      5 C          14.5850   70.0077   -0.9278 C.3     1  UNL1        0.1811
      6 C          12.0049   68.1203    0.7178 C.3     1  UNL1        0.2383
      7 C          11.7620   69.5843    1.1660 C.3     1  UNL1        0.1895
      8 O          10.3728   69.8203    1.4062 O.3     1  UNL1       -0.3779
      9 C          12.2545   70.3872   -0.0662 C.3     1  UNL1        0.1713
     10 C          13.1838   69.4063   -0.8049 C.3     1  UNL1        0.1764
     11 O          13.2378   68.1967   -0.0289 O.3     1  UNL1       -0.3308
     12 O          11.1505   70.7601   -0.8933 O.3     1  UNL1       -0.3794
     13 H          10.2903   70.7442    1.6805 H       1  UNL1        0.2106
     14 H          10.5767   71.3240   -0.3571 H       1  UNL1        0.2105
     15 N          12.1586   67.2420    1.8787 N.ar    1  UNL1       -0.2551
     16 C          11.0882   66.5933    2.3705 C.ar    1  UNL1        0.3323
     17 N          11.2031   65.7771    3.4347 N.ar    1  UNL1       -0.2743
     18 C          12.3972   65.6042    4.0333 C.ar    1  UNL1        0.2626
     19 C          13.5323   66.2856    3.5298 C.ar    1  UNL1        0.0795
     20 C          13.3899   67.0948    2.4586 C.ar    1  UNL1        0.0869
     21 O          10.0046   66.7390    1.8408 O.2     1  UNL1       -0.2464
     22 O          12.5012   64.8694    4.9996 O.2     1  UNL1       -0.2670
     23 H          10.4208   65.3135    3.7737 H       1  UNL1        0.1734
     24 O          16.5508   71.2332   -2.1716 O.3     1  UNL1       -0.2703
     25 P          17.8585   71.7737   -2.9383 P.3     1  UNL1        0.2208
     26 O          17.7584   73.2397   -3.1105 O.2     1  UNL1       -0.5170
     27 O          19.1708   71.4240   -2.0724 O.3     1  UNL1       -0.4371
     28 O          17.9657   71.0689   -4.3811 O.3     1  UNL1       -0.2858
     29 C          17.9032   72.1097   -5.3570 C.3     1  UNL1        0.2704
     30 C          16.7713   71.8161   -6.3429 C.3     1  UNL1        0.1967
     31 C          17.0311   70.4626   -7.0115 C.3     1  UNL1        0.1715
     32 C          18.4380   70.4785   -7.6197 C.3     1  UNL1        0.1694
     33 C          19.4445   70.8720   -6.5356 C.3     1  UNL1        0.1761
     34 O          15.5261   71.7749   -5.6435 O.3     1  UNL1       -0.3775
     35 O          16.0634   70.2414   -8.0397 O.3     1  UNL1       -0.3794
     36 O          18.4857   71.4244   -8.6888 O.3     1  UNL1       -0.3794
     37 O          19.1452   72.1812   -6.0534 O.3     1  UNL1       -0.3258
     38 H          15.4076   72.6425   -5.2335 H       1  UNL1        0.2106
     39 H          15.1964   70.2513   -7.6149 H       1  UNL1        0.2105
     40 H          17.8339   71.1407   -9.3429 H       1  UNL1        0.2105
     41 C          20.8570   70.8576   -7.1241 C.3     1  UNL1        0.1693
     42 O          21.0114   69.7108   -7.9620 O.3     1  UNL1       -0.3794
     43 H          21.9122   69.7396   -8.3126 H       1  UNL1        0.2105
@<TRIPOS>BOND
     1    15    16   ar
     2    15    20   ar
     3    15     6    1
     4    16    17   ar
     5    16    21    2
     6    17    18   ar
     7    17    23    1
     8    18    19   ar
     9    18    22    2
    10    19    20   ar
    11     6     7    1
    12     6    11    1
    13     7     8    1
    14     7     9    1
    15     8    13    1
    16     9    10    1
    17     9    12    1
    18    10    11    1
    19    10     5    1
    20    12    14    1
    21     5     4    1
    22     4     1    1
    23     1     2    2
    24     1     3    1
    25     1    24    1
    26    24    25    1
    27    25    26    2
    28    25    27    1
    29    25    28    1
    30    28    29    1
    31    29    30    1
    32    29    37    1
    33    30    31    1
    34    30    34    1
    35    31    32    1
    36    31    35    1
    37    32    33    1
    38    32    36    1
    39    33    41    1
    40    33    37    1
    41    41    42    1
    42    34    38    1
    43    35    39    1
    44    36    40    1
    45    42    43    1
@<TRIPOS>MOLECULE
GDU
 43 45 0 0 0
SMALL
GASTEIGER

@<TRIPOS>ATOM
      1 P          23.5725   72.1801   -3.3732 P.3     1  UNL1        0.2189
      2 O          24.3075   72.9251   -4.4193 O.2     1  UNL1       -0.5170
      3 O          24.3330   70.7941   -3.0671 O.3     1  UNL1       -0.4371
      4 O          23.5062   73.0637   -2.0309 O.3     1  UNL1       -0.3112
      5 C          22.4200   72.5558   -1.2545 C.3     1  UNL1        0.1811
      6 C          24.3345   71.7242    1.6729 C.3     1  UNL1        0.2383
      7 C          22.9160   72.0399    2.2124 C.3     1  UNL1        0.1895
      8 O          22.6347   71.2740    3.3861 O.3     1  UNL1       -0.3779
      9 C          22.0132   71.5954    1.0323 C.3     1  UNL1        0.1713
     10 C          22.9570   71.6036   -0.1846 C.3     1  UNL1        0.1764
     11 O          24.2435   72.0566    0.2712 O.3     1  UNL1       -0.3308
     12 O          21.4971   70.2833    1.2648 O.3     1  UNL1       -0.3794
     13 H          21.7422   71.5162    3.6699 H       1  UNL1        0.2106
     14 H          20.9644   70.3305    2.0702 H       1  UNL1        0.2105
     15 N          25.3384   72.5577    2.3365 N.ar    1  UNL1       -0.2551
     16 C          26.5072   72.0151    2.7210 C.ar    1  UNL1        0.3323
     17 N          27.4485   72.7603    3.3298 N.ar    1  UNL1       -0.2743
     18 C          27.2289   74.0666    3.5738 C.ar    1  UNL1        0.2626
     19 C          26.0000   74.6503    3.1797 C.ar    1  UNL1        0.0795
     20 C          25.0751   73.8812    2.5670 C.ar    1  UNL1        0.0869
     21 O          26.7198   70.8382    2.5072 O.2     1  UNL1       -0.2464
     22 O          28.0784   74.7407    4.1292 O.2     1  UNL1       -0.2670
     23 H          28.2880   72.3532    3.5966 H       1  UNL1        0.1734
     24 O          22.0786   71.8688   -3.8868 O.3     1  UNL1       -0.2703
     25 P          21.8509   72.7439   -5.2181 P.3     1  UNL1        0.2208
     26 O          21.9995   74.1802   -4.8953 O.2     1  UNL1       -0.5170
     27 O          22.9427   72.3279   -6.3267 O.3     1  UNL1       -0.4371
     28 O          20.3729   72.4724   -5.7939 O.3     1  UNL1       -0.2858
     29 C          20.3597   71.1324   -6.2879 C.3     1  UNL1        0.2704
     30 C          19.8708   71.1288   -7.7371 C.3     1  UNL1        0.1967
     31 C          18.4669   71.7390   -7.7912 C.3     1  UNL1        0.1715
     32 C          17.5693   70.9921   -6.7982 C.3     1  UNL1        0.1694
     33 C          18.2324   71.0078   -5.4187 C.3     1  UNL1        0.1761
     34 O          20.7614   71.9009   -8.5446 O.3     1  UNL1       -0.3775
     35 O          17.9375   71.6090   -9.1124 O.3     1  UNL1       -0.3794
     36 O          17.3937   69.6432   -7.2339 O.3     1  UNL1       -0.3794
     37 O          19.4913   70.3392   -5.4821 O.3     1  UNL1       -0.3258
     38 H          21.6319   71.4858   -8.4750 H       1  UNL1        0.2106
     39 H          18.5380   72.0819   -9.7023 H       1  UNL1        0.2105
     40 H          16.9799   69.6824   -8.1060 H       1  UNL1        0.2105
     41 C          17.3277   70.2940   -4.4117 C.3     1  UNL1        0.1693
     42 O          15.9615   70.5891   -4.7073 O.3     1  UNL1       -0.3794
     43 H          15.4260   70.1209   -4.0521 H       1  UNL1        0.2105
@<TRIPOS>BOND
     1    15    16   ar
     2    15    20   ar
     3    15     6    1
     4    16    17   ar
     5    16    21    2
     6    17    18   ar
     7    17    23    1
     8    18    19   ar
     9    18    22    2
    10    19    20   ar
    11     6     7    1
    12     6    11    1
    13     7     8    1
    14     7     9    1
    15     8    13    1
    16     9    10    1
    17     9    12    1
    18    10    11    1
    19    10     5    1
    20    12    14    1
    21     5     4    1
    22     4     1    1
    23     1     2    2
    24     1     3    1
    25     1    24    1
    26    24    25    1
    27    25    26    2
    28    25    27    1
    29    25    28    1
    30    28    29    1
    31    29    30    1
    32    29    37    1
    33    30    31    1
    34    30    34    1
    35    31    32    1
    36    31    35    1
    37    32    33    1
    38    32    36    1
    39    33    41    1
    40    33    37    1
    41    41    42    1
    42    34    38    1
    43    35    39    1
    44    36    40    1
    45    42    43    1
@<TRIPOS>MOLECULE
GDU
 43 45 0 0 0
SMALL
GASTEIGER

@<TRIPOS>ATOM
      1 P          15.4807   72.3852   -2.3194 P.3     1  UNL1        0.2189
      2 O          14.3226   73.3055   -2.2839 O.2     1  UNL1       -0.5170
      3 O          16.3842   72.6089   -1.0054 O.3     1  UNL1       -0.4371
      4 O          14.9575   70.8648   -2.3584 O.3     1  UNL1       -0.3112
      5 C          14.5241   70.5423   -1.0361 C.3     1  UNL1        0.1811
      6 C          12.2429   68.0870    0.2658 C.3     1  UNL1        0.2383
      7 C          11.5865   69.4487    0.6092 C.3     1  UNL1        0.1895
      8 O          10.1613   69.3394    0.6205 O.3     1  UNL1       -0.3779
      9 C          12.0633   70.3442   -0.5638 C.3     1  UNL1        0.1713
     10 C          13.3075   69.6177   -1.1075 C.3     1  UNL1        0.1764
     11 O          13.5249   68.4598   -0.2827 O.3     1  UNL1       -0.3308
     12 O          11.0500   70.4344   -1.5673 O.3     1  UNL1       -0.3794
     13 H           9.8161   70.2161    0.8398 H       1  UNL1        0.2106
     14 H          10.2790   70.8428   -1.1509 H       1  UNL1        0.2105
     15 N          12.4142   67.2758    1.4722 N.ar    1  UNL1       -0.2551
     16 C          13.6065   67.2482    2.0935 C.ar    1  UNL1        0.3323
     17 N          13.7895   66.5133    3.2063 N.ar    1  UNL1       -0.2743
     18 C          12.7779   65.7820    3.7122 C.ar    1  UNL1        0.2626
     19 C          11.5181   65.7969    3.0651 C.ar    1  UNL1        0.0795
     20 C          11.3606   66.5459    1.9531 C.ar    1  UNL1        0.0869
     21 O          14.5283   67.9031    1.6491 O.2     1  UNL1       -0.2464
     22 O          12.9440   65.1127    4.7167 O.2     1  UNL1       -0.2670
     23 H          14.6556   66.5085    3.6442 H       1  UNL1        0.1734
     24 O          16.3627   72.6845   -3.6327 O.3     1  UNL1       -0.2703
     25 P          17.2489   71.3699   -3.9092 P.3     1  UNL1        0.2208
     26 O          18.0723   71.0706   -2.7170 O.2     1  UNL1       -0.5170
     27 O          16.2771   70.1228   -4.2165 O.3     1  UNL1       -0.4371
     28 O          18.2090   71.6252   -5.1754 O.3     1  UNL1       -0.2858
     29 C          18.8260   70.3754   -5.4869 C.3     1  UNL1        0.2704
     30 C          20.3430   70.5588   -5.5526 C.3     1  UNL1        0.1967
     31 C          20.6728   71.6060   -6.6209 C.3     1  UNL1        0.1715
     32 C          20.0086   71.1885   -7.9378 C.3     1  UNL1        0.1694
     33 C          18.5154   70.9590   -7.6913 C.3     1  UNL1        0.1761
     34 O          20.8273   70.9995   -4.2827 O.3     1  UNL1       -0.3775
     35 O          22.0889   71.6820   -6.7976 O.3     1  UNL1       -0.3794
     36 O          20.6096   69.9840   -8.4152 O.3     1  UNL1       -0.3794
     37 O          18.3401   69.9075   -6.7429 O.3     1  UNL1       -0.3258
     38 H          20.5919   70.3151   -3.6416 H       1  UNL1        0.2106
     39 H          22.4642   71.9349   -5.9446 H       1  UNL1        0.2105
     40 H          21.5472   70.1736   -8.5504 H       1  UNL1        0.2105
     41 C          17.8361   70.5749   -9.0077 C.3     1  UNL1        0.1693
     42 O          18.5133   71.2081  -10.0947 O.3     1  UNL1       -0.3794
     43 H          18.0558   70.9403  -10.9035 H       1  UNL1        0.2105
@<TRIPOS>BOND
     1    15    16   ar
     2    15    20   ar
     3    15     6    1
     4    16    17   ar
     5    16    21    2
     6    17    18   ar
     7    17    23    1
     8    18    19   ar
     9    18    22    2
    10    19    20   ar
    11     6     7    1
    12     6    11    1
    13     7     8    1
    14     7     9    1
    15     8    13    1
    16     9    10    1
    17     9    12    1
    18    10    11    1
    19    10     5    1
    20    12    14    1
    21     5     4    1
    22     4     1    1
    23     1     2    2
    24     1     3    1
    25     1    24    1
    26    24    25    1
    27    25    26    2
    28    25    27    1
    29    25    28    1
    30    28    29    1
    31    29    30    1
    32    29    37    1
    33    30    31    1
    34    30    34    1
    35    31    32    1
    36    31    35    1
    37    32    33    1
    38    32    36    1
    39    33    41    1
    40    33    37    1
    41    41    42    1
    42    34    38    1
    43    35    39    1
    44    36    40    1
    45    42    43    1
@<TRIPOS>MOLECULE
GDU
 43 45 0 0 0
SMALL
GASTEIGER

@<TRIPOS>ATOM
      1 P          22.5400   73.9733   -4.4803 P.3     1  UNL1        0.2189
      2 O          23.2371   75.2776   -4.4330 O.2     1  UNL1       -0.5170
      3 O          23.6246   72.7893   -4.6013 O.3     1  UNL1       -0.4371
      4 O          21.6779   73.7761   -3.1369 O.3     1  UNL1       -0.3112
      5 C          22.5209   74.1493   -2.0458 C.3     1  UNL1        0.1811
      6 C          22.8066   72.1496    0.9285 C.3     1  UNL1        0.2383
      7 C          21.4681   71.7030    0.2865 C.3     1  UNL1        0.1895
      8 O          21.1956   70.3304    0.5781 O.3     1  UNL1       -0.3779
      9 C          21.7508   71.9017   -1.2254 C.3     1  UNL1        0.1713
     10 C          22.9226   72.9005   -1.2589 C.3     1  UNL1        0.1764
     11 O          23.2243   73.2563    0.1014 O.3     1  UNL1       -0.3308
     12 O          22.1236   70.6623   -1.8311 O.3     1  UNL1       -0.3794
     13 H          20.3536   70.1168    0.1524 H       1  UNL1        0.2106
     14 H          21.3729   70.0622   -1.7259 H       1  UNL1        0.2105
     15 N          22.5978   72.5878    2.3095 N.ar    1  UNL1       -0.2551
     16 C          21.3474   72.7038    2.7905 C.ar    1  UNL1        0.3323
     17 N          21.1280   73.1013    4.0577 N.ar    1  UNL1       -0.2743
     18 C          22.1636   73.4003    4.8655 C.ar    1  UNL1        0.2626
     19 C          23.4860   73.2882    4.3706 C.ar    1  UNL1        0.0795
     20 C          23.6778   72.8832    3.0972 C.ar    1  UNL1        0.0869
     21 O          20.4032   72.4372    2.0739 O.2     1  UNL1       -0.2464
     22 O          21.9659   73.7648    6.0111 O.2     1  UNL1       -0.2670
     23 H          20.2191   73.1754    4.3896 H       1  UNL1        0.1734
     24 O          21.5611   73.9351   -5.7581 O.3     1  UNL1       -0.2703
     25 P          21.2409   72.3860   -6.0545 P.3     1  UNL1        0.2208
     26 O          22.3915   71.7692   -6.7508 O.2     1  UNL1       -0.5170
     27 O          20.9806   71.6165   -4.6638 O.3     1  UNL1       -0.4371
     28 O          19.9297   72.2757   -6.9811 O.3     1  UNL1       -0.2858
     29 C          19.2754   71.0555   -6.6306 C.3     1  UNL1        0.2704
     30 C          19.1268   70.1813   -7.8768 C.3     1  UNL1        0.1967
     31 C          18.3176   70.9461   -8.9288 C.3     1  UNL1        0.1715
     32 C          17.0004   71.4067   -8.2943 C.3     1  UNL1        0.1694
     33 C          17.3107   72.1903   -7.0165 C.3     1  UNL1        0.1761
     34 O          20.4194   69.8688   -8.3992 O.3     1  UNL1       -0.3775
     35 O          18.0444   70.0901  -10.0401 O.3     1  UNL1       -0.3794
     36 O          16.1979   70.2680   -7.9792 O.3     1  UNL1       -0.3794
     37 O          17.9898   71.3467   -6.0874 O.3     1  UNL1       -0.3258
     38 H          20.8948   69.3956   -7.7028 H       1  UNL1        0.2106
     39 H          18.8980   69.8163  -10.3989 H       1  UNL1        0.2105
     40 H          16.0329   69.8034   -8.8100 H       1  UNL1        0.2105
     41 C          16.0034   72.6844   -6.3931 C.3     1  UNL1        0.1693
     42 O          15.5158   71.7062   -5.4731 O.3     1  UNL1       -0.3794
     43 H          14.6935   72.0555   -5.1028 H       1  UNL1        0.2105
@<TRIPOS>BOND
     1    15    16   ar
     2    15    20   ar
     3    15     6    1
     4    16    17   ar
     5    16    21    2
     6    17    18   ar
     7    17    23    1
     8    18    19   ar
     9    18    22    2
    10    19    20   ar
    11     6     7    1
    12     6    11    1
    13     7     8    1
    14     7     9    1
    15     8    13    1
    16     9    10    1
    17     9    12    1
    18    10    11    1
    19    10     5    1
    20    12    14    1
    21     5     4    1
    22     4     1    1
    23     1     2    2
    24     1     3    1
    25     1    24    1
    26    24    25    1
    27    25    26    2
    28    25    27    1
    29    25    28    1
    30    28    29    1
    31    29    30    1
    32    29    37    1
    33    30    31    1
    34    30    34    1
    35    31    32    1
    36    31    35    1
    37    32    33    1
    38    32    36    1
    39    33    41    1
    40    33    37    1
    41    41    42    1
    42    34    38    1
    43    35    39    1
    44    36    40    1
    45    42    43    1
@<TRIPOS>MOLECULE
GDU
 43 45 0 0 0
SMALL
GASTEIGER

@<TRIPOS>ATOM
      1 P          22.6561   71.4705   -2.8755 P.3     1  UNL1        0.2189
      2 O          22.6673   72.8554   -3.3963 O.2     1  UNL1       -0.5170
      3 O          24.1331   70.8403   -2.9950 O.3     1  UNL1       -0.4371
      4 O          22.2001   71.4804   -1.3331 O.3     1  UNL1       -0.3112
      5 C          22.5703   72.7531   -0.8004 C.3     1  UNL1        0.1811
      6 C          24.2390   72.6511    2.3827 C.3     1  UNL1        0.2383
      7 C          23.8609   71.1758    2.0942 C.3     1  UNL1        0.1895
      8 O          24.8121   70.2822    2.6771 O.3     1  UNL1       -0.3779
      9 C          23.9267   71.1204    0.5456 C.3     1  UNL1        0.1713
     10 C          23.7872   72.5915    0.1123 C.3     1  UNL1        0.1764
     11 O          23.6116   73.3768    1.3042 O.3     1  UNL1       -0.3308
     12 O          25.1795   70.5824    0.1178 O.3     1  UNL1       -0.3794
     13 H          24.5202   69.3852    2.4623 H       1  UNL1        0.2106
     14 H          25.2328   69.6832    0.4690 H       1  UNL1        0.2105
     15 N          23.7013   73.0805    3.6747 N.ar    1  UNL1       -0.2551
     16 C          22.5107   72.6133    4.0900 C.ar    1  UNL1        0.3323
     17 N          21.9955   72.9895    5.2753 N.ar    1  UNL1       -0.2743
     18 C          22.6640   73.8526    6.0641 C.ar    1  UNL1        0.2626
     19 C          23.9166   74.3574    5.6370 C.ar    1  UNL1        0.0795
     20 C          24.4122   73.9604    4.4458 C.ar    1  UNL1        0.0869
     21 O          21.8963   71.8337    3.3895 O.2     1  UNL1       -0.2464
     22 O          22.1962   74.1974    7.1350 O.2     1  UNL1       -0.2670
     23 H          21.1368   72.6390    5.5611 H       1  UNL1        0.1734
     24 O          21.6242   70.5830   -3.7357 O.3     1  UNL1       -0.2703
     25 P          20.9615   71.5638   -4.8261 P.3     1  UNL1        0.2208
     26 O          20.2747   72.6772   -4.1349 O.2     1  UNL1       -0.5170
     27 O          22.1126   72.1563   -5.7844 O.3     1  UNL1       -0.4371
     28 O          19.8977   70.7429   -5.7117 O.3     1  UNL1       -0.2858
     29 C          19.0087   71.7015   -6.2866 C.3     1  UNL1        0.2704
     30 C          17.5716   71.3708   -5.8808 C.3     1  UNL1        0.1967
     31 C          17.2296   69.9581   -6.3642 C.3     1  UNL1        0.1715
     32 C          17.5197   69.8706   -7.8668 C.3     1  UNL1        0.1694
     33 C          18.9625   70.3136   -8.1218 C.3     1  UNL1        0.1761
     34 O          17.4491   71.4346   -4.4588 O.3     1  UNL1       -0.3775
     35 O          15.8467   69.6899   -6.1233 O.3     1  UNL1       -0.3794
     36 O          16.6204   70.7229   -8.5774 O.3     1  UNL1       -0.3794
     37 O          19.1306   71.6683   -7.7067 O.3     1  UNL1       -0.3258
     38 H          17.6800   72.3368   -4.1991 H       1  UNL1        0.2106
     39 H          15.7083   69.7675   -5.1709 H       1  UNL1        0.2105
     40 H          15.7269   70.4111   -8.3831 H       1  UNL1        0.2105
     41 C          19.2734   70.1973   -9.6157 C.3     1  UNL1        0.1693
     42 O          18.6291   71.2605  -10.3196 O.3     1  UNL1       -0.3794
     43 H          18.8503   71.1515  -11.2548 H       1  UNL1        0.2105
@<TRIPOS>BOND
     1    15    16   ar
     2    15    20   ar
     3    15     6    1
     4    16    17   ar
     5    16    21    2
     6    17    18   ar
     7    17    23    1
     8    18    19   ar
     9    18    22    2
    10    19    20   ar
    11     6     7    1
    12     6    11    1
    13     7     8    1
    14     7     9    1
    15     8    13    1
    16     9    10    1
    17     9    12    1
    18    10    11    1
    19    10     5    1
    20    12    14    1
    21     5     4    1
    22     4     1    1
    23     1     2    2
    24     1     3    1
    25     1    24    1
    26    24    25    1
    27    25    26    2
    28    25    27    1
    29    25    28    1
    30    28    29    1
    31    29    30    1
    32    29    37    1
    33    30    31    1
    34    30    34    1
    35    31    32    1
    36    31    35    1
    37    32    33    1
    38    32    36    1
    39    33    41    1
    40    33    37    1
    41    41    42    1
    42    34    38    1
    43    35    39    1
    44    36    40    1
    45    42    43    1
@<TRIPOS>MOLECULE
GDU
 43 45 0 0 0
SMALL
GASTEIGER

@<TRIPOS>ATOM
      1 P          21.7858   71.7322   -0.4252 P.3     1  UNL1        0.2189
      2 O          22.9783   71.0870   -1.0179 O.2     1  UNL1       -0.5170
      3 O          20.9113   70.6286    0.3561 O.3     1  UNL1       -0.4371
      4 O          22.2505   72.8764    0.6051 O.3     1  UNL1       -0.3112
      5 C          23.1908   72.2740    1.4959 C.3     1  UNL1        0.1811
      6 C          22.6541   73.0539    4.9645 C.3     1  UNL1        0.2383
      7 C          21.5645   73.8593    4.2115 C.3     1  UNL1        0.1895
      8 O          20.3921   74.0067    5.0159 O.3     1  UNL1       -0.3779
      9 C          21.2826   72.9550    2.9834 C.3     1  UNL1        0.1713
     10 C          22.5428   72.0775    2.8677 C.3     1  UNL1        0.1764
     11 O          23.4526   72.4919    3.9015 O.3     1  UNL1       -0.3308
     12 O          20.1238   72.1504    3.2109 O.3     1  UNL1       -0.3794
     13 H          19.7566   74.5144    4.4922 H       1  UNL1        0.2106
     14 H          19.3813   72.7572    3.3339 H       1  UNL1        0.2105
     15 N          23.4632   73.9378    5.8053 N.ar    1  UNL1       -0.2551
     16 C          24.5334   74.5609    5.2814 C.ar    1  UNL1        0.3323
     17 N          25.2919   75.3815    6.0319 N.ar    1  UNL1       -0.2743
     18 C          24.9945   75.5848    7.3298 C.ar    1  UNL1        0.2626
     19 C          23.8735   74.9305    7.8967 C.ar    1  UNL1        0.0795
     20 C          23.1273   74.1162    7.1204 C.ar    1  UNL1        0.0869
     21 O          24.8138   74.3878    4.1120 O.2     1  UNL1       -0.2464
     22 O          25.6833   76.3236    8.0111 O.2     1  UNL1       -0.2670
     23 H          26.0582   75.8264    5.6362 H       1  UNL1        0.1734
     24 O          20.8960   72.3904   -1.5946 O.3     1  UNL1       -0.2703
     25 P          20.4081   71.1859   -2.5438 P.3     1  UNL1        0.2208
     26 O          21.5726   70.3575   -2.9271 O.2     1  UNL1       -0.5170
     27 O          19.3411   70.2766   -1.7509 O.3     1  UNL1       -0.4371
     28 O          19.7188   71.7894   -3.8669 O.3     1  UNL1       -0.2858
     29 C          20.0423   70.9072   -4.9426 C.3     1  UNL1        0.2704
     30 C          20.8800   71.6558   -5.9805 C.3     1  UNL1        0.1967
     31 C          20.0826   72.8603   -6.4901 C.3     1  UNL1        0.1715
     32 C          18.7169   72.3703   -6.9844 C.3     1  UNL1        0.1694
     33 C          18.0420   71.5687   -5.8687 C.3     1  UNL1        0.1761
     34 O          22.0965   72.1043   -5.3805 O.3     1  UNL1       -0.3775
     35 O          20.7892   73.4842   -7.5643 O.3     1  UNL1       -0.3794
     36 O          18.8941   71.5421   -8.1345 O.3     1  UNL1       -0.3794
     37 O          18.8398   70.4315   -5.5428 O.3     1  UNL1       -0.3258
     38 H          22.5611   71.3158   -5.0686 H       1  UNL1        0.2106
     39 H          21.6433   73.7647   -7.2119 H       1  UNL1        0.2105
     40 H          19.3261   72.0851   -8.8066 H       1  UNL1        0.2105
     41 C          16.6623   71.1036   -6.3402 C.3     1  UNL1        0.1693
     42 O          16.1504   70.1317   -5.4267 O.3     1  UNL1       -0.3794
     43 H          15.2819   69.8658   -5.7586 H       1  UNL1        0.2105
@<TRIPOS>BOND
     1    15    16   ar
     2    15    20   ar
     3    15     6    1
     4    16    17   ar
     5    16    21    2
     6    17    18   ar
     7    17    23    1
     8    18    19   ar
     9    18    22    2
    10    19    20   ar
    11     6     7    1
    12     6    11    1
    13     7     8    1
    14     7     9    1
    15     8    13    1
    16     9    10    1
    17     9    12    1
    18    10    11    1
    19    10     5    1
    20    12    14    1
    21     5     4    1
    22     4     1    1
    23     1     2    2
    24     1     3    1
    25     1    24    1
    26    24    25    1
    27    25    26    2
    28    25    27    1
    29    25    28    1
    30    28    29    1
    31    29    30    1
    32    29    37    1
    33    30    31    1
    34    30    34    1
    35    31    32    1
    36    31    35    1
    37    32    33    1
    38    32    36    1
    39    33    41    1
    40    33    37    1
    41    41    42    1
    42    34    38    1
    43    35    39    1
    44    36    40    1
    45    42    43    1
@<TRIPOS>MOLECULE
GDU
 43 45 0 0 0
SMALL
GASTEIGER

@<TRIPOS>ATOM
      1 P          20.0218   71.0799   -1.9868 P.3     1  UNL1        0.2189
      2 O          20.6526   70.6356   -0.7242 O.2     1  UNL1       -0.5170
      3 O          20.6665   70.2724   -3.2218 O.3     1  UNL1       -0.4371
      4 O          18.4401   70.7947   -1.9263 O.3     1  UNL1       -0.3112
      5 C          17.8021   71.8449   -2.6548 C.3     1  UNL1        0.1811
      6 C          16.7415   70.5037   -5.8176 C.3     1  UNL1        0.2383
      7 C          17.1535   69.2616   -4.9867 C.3     1  UNL1        0.1895
      8 O          16.3803   68.1188   -5.3603 O.3     1  UNL1       -0.3779
      9 C          16.8144   69.7104   -3.5415 C.3     1  UNL1        0.1713
     10 C          16.7813   71.2478   -3.6251 C.3     1  UNL1        0.1764
     11 O          17.1184   71.6130   -4.9746 O.3     1  UNL1       -0.3308
     12 O          15.5414   69.1968   -3.1445 O.3     1  UNL1       -0.3794
     13 H          16.6845   67.3841   -4.8094 H       1  UNL1        0.2106
     14 H          15.6085   68.2326   -3.1687 H       1  UNL1        0.2105
     15 N          17.4744   70.5460   -7.0841 N.ar    1  UNL1       -0.2551
     16 C          16.7975   70.5696   -8.2458 C.ar    1  UNL1        0.3323
     17 N          17.4471   70.6121   -9.4239 N.ar    1  UNL1       -0.2743
     18 C          18.7936   70.6218   -9.4580 C.ar    1  UNL1        0.2626
     19 C          19.5199   70.5914   -8.2423 C.ar    1  UNL1        0.0795
     20 C          18.8433   70.5532   -7.0747 C.ar    1  UNL1        0.0869
     21 O          15.5827   70.5618   -8.2310 O.2     1  UNL1       -0.2464
     22 O          19.3826   70.6555  -10.5241 O.2     1  UNL1       -0.2670
     23 H          16.9425   70.6331  -10.2526 H       1  UNL1        0.1734
     24 O          20.2768   72.6570   -2.1870 O.3     1  UNL1       -0.2703
     25 P          21.7985   72.9430   -1.7481 P.3     1  UNL1        0.2208
     26 O          22.6979   71.9930   -2.4393 O.2     1  UNL1       -0.5170
     27 O          22.1988   74.4502   -2.1512 O.3     1  UNL1       -0.4371
     28 O          21.9427   72.7585   -0.1559 O.3     1  UNL1       -0.2858
     29 C          23.2352   73.2488    0.2033 C.3     1  UNL1        0.2704
     30 C          24.0287   72.1365    0.8907 C.3     1  UNL1        0.1967
     31 C          23.2622   71.6716    2.1327 C.3     1  UNL1        0.1715
     32 C          22.9596   72.8933    3.0076 C.3     1  UNL1        0.1694
     33 C          22.2448   73.9482    2.1595 C.3     1  UNL1        0.1761
     34 O          24.1940   71.0397   -0.0099 O.3     1  UNL1       -0.3775
     35 O          24.0576   70.7379    2.8663 O.3     1  UNL1       -0.3794
     36 O          24.1810   73.4304    3.5172 O.3     1  UNL1       -0.3794
     37 O          23.0919   74.3583    1.0870 O.3     1  UNL1       -0.3258
     38 H          24.6736   71.3792   -0.7778 H       1  UNL1        0.2106
     39 H          24.2328   69.9946    2.2754 H       1  UNL1        0.2105
     40 H          24.5981   72.7319    4.0382 H       1  UNL1        0.2105
     41 C          21.9073   75.1590    3.0324 C.3     1  UNL1        0.1693
     42 O          23.0167   76.0591    3.0464 O.3     1  UNL1       -0.3794
     43 H          22.7636   76.8066    3.6053 H       1  UNL1        0.2105
@<TRIPOS>BOND
     1    15    16   ar
     2    15    20   ar
     3    15     6    1
     4    16    17   ar
     5    16    21    2
     6    17    18   ar
     7    17    23    1
     8    18    19   ar
     9    18    22    2
    10    19    20   ar
    11     6     7    1
    12     6    11    1
    13     7     8    1
    14     7     9    1
    15     8    13    1
    16     9    10    1
    17     9    12    1
    18    10    11    1
    19    10     5    1
    20    12    14    1
    21     5     4    1
    22     4     1    1
    23     1     2    2
    24     1     3    1
    25     1    24    1
    26    24    25    1
    27    25    26    2
    28    25    27    1
    29    25    28    1
    30    28    29    1
    31    29    30    1
    32    29    37    1
    33    30    31    1
    34    30    34    1
    35    31    32    1
    36    31    35    1
    37    32    33    1
    38    32    36    1
    39    33    41    1
    40    33    37    1
    41    41    42    1
    42    34    38    1
    43    35    39    1
    44    36    40    1
    45    42    43    1
@<TRIPOS>MOLECULE
GDU
 43 45 0 0 0
SMALL
GASTEIGER

@<TRIPOS>ATOM
      1 P          21.7969   72.4740   -6.3703 P.3     1  UNL1        0.2189
      2 O          23.1594   72.9563   -6.6874 O.2     1  UNL1       -0.5170
      3 O          20.7253   73.6229   -6.7235 O.3     1  UNL1       -0.4371
      4 O          21.4777   71.1576   -7.2375 O.3     1  UNL1       -0.3112
      5 C          20.4972   71.5290   -8.2077 C.3     1  UNL1        0.1811
      6 C          17.4431   70.1640   -6.8899 C.3     1  UNL1        0.2383
      7 C          16.9843   71.1432   -8.0005 C.3     1  UNL1        0.1895
      8 O          15.7667   70.6975   -8.6022 O.3     1  UNL1       -0.3779
      9 C          18.1603   71.0652   -9.0086 C.3     1  UNL1        0.1713
     10 C          19.3371   70.5325   -8.1702 C.3     1  UNL1        0.1764
     11 O          18.8687   70.3788   -6.8192 O.3     1  UNL1       -0.3308
     12 O          17.8472   70.1643  -10.0727 O.3     1  UNL1       -0.3794
     13 H          15.5368   71.3473   -9.2809 H       1  UNL1        0.2106
     14 H          17.0689   70.5210  -10.5218 H       1  UNL1        0.2105
     15 N          16.8079   70.4945   -5.6131 N.ar    1  UNL1       -0.2551
     16 C          16.4005   69.5075   -4.7957 C.ar    1  UNL1        0.3323
     17 N          15.8169   69.7842   -3.6148 N.ar    1  UNL1       -0.2743
     18 C          15.6217   71.0619   -3.2356 C.ar    1  UNL1        0.2626
     19 C          16.0404   72.1119   -4.0891 C.ar    1  UNL1        0.0795
     20 C          16.6270   71.8063   -5.2660 C.ar    1  UNL1        0.0869
     21 O          16.5703   68.3501   -5.1240 O.2     1  UNL1       -0.2464
     22 O          15.0891   71.3133   -2.1690 O.2     1  UNL1       -0.2670
     23 H          15.5330   69.0593   -3.0354 H       1  UNL1        0.1734
     24 O          21.7052   72.1204   -4.8022 O.3     1  UNL1       -0.2703
     25 P          22.8095   73.0219   -4.0552 P.3     1  UNL1        0.2208
     26 O          24.1441   72.4056   -4.2223 O.2     1  UNL1       -0.5170
     27 O          22.8174   74.4999   -4.6951 O.3     1  UNL1       -0.4371
     28 O          22.4544   73.1187   -2.4885 O.3     1  UNL1       -0.2858
     29 C          21.8544   71.8757   -2.1214 C.3     1  UNL1        0.2704
     30 C          20.4675   72.1345   -1.5307 C.3     1  UNL1        0.1967
     31 C          20.6084   73.0486   -0.3096 C.3     1  UNL1        0.1715
     32 C          21.6224   72.4241    0.6556 C.3     1  UNL1        0.1694
     33 C          22.9233   72.1449   -0.1011 C.3     1  UNL1        0.1761
     34 O          19.6404   72.7655   -2.5099 O.3     1  UNL1       -0.3775
     35 O          19.3422   73.1808    0.3398 O.3     1  UNL1       -0.3794
     36 O          21.0960   71.2031    1.1774 O.3     1  UNL1       -0.3794
     37 O          22.6759   71.2194   -1.1586 O.3     1  UNL1       -0.3258
     38 H          19.5856   72.1595   -3.2612 H       1  UNL1        0.2106
     39 H          18.7354   73.5648   -0.3056 H       1  UNL1        0.2105
     40 H          20.2772   71.4260    1.6391 H       1  UNL1        0.2105
     41 C          23.9545   71.5526    0.8620 C.3     1  UNL1        0.1693
     42 O          23.6185   70.1924    1.1408 O.3     1  UNL1       -0.3794
     43 H          24.2914   69.8568    1.7489 H       1  UNL1        0.2105
@<TRIPOS>BOND
     1    15    16   ar
     2    15    20   ar
     3    15     6    1
     4    16    17   ar
     5    16    21    2
     6    17    18   ar
     7    17    23    1
     8    18    19   ar
     9    18    22    2
    10    19    20   ar
    11     6     7    1
    12     6    11    1
    13     7     8    1
    14     7     9    1
    15     8    13    1
    16     9    10    1
    17     9    12    1
    18    10    11    1
    19    10     5    1
    20    12    14    1
    21     5     4    1
    22     4     1    1
    23     1     2    2
    24     1     3    1
    25     1    24    1
    26    24    25    1
    27    25    26    2
    28    25    27    1
    29    25    28    1
    30    28    29    1
    31    29    30    1
    32    29    37    1
    33    30    31    1
    34    30    34    1
    35    31    32    1
    36    31    35    1
    37    32    33    1
    38    32    36    1
    39    33    41    1
    40    33    37    1
    41    41    42    1
    42    34    38    1
    43    35    39    1
    44    36    40    1
    45    42    43    1
@<TRIPOS>MOLECULE
GDU
 43 45 0 0 0
SMALL
GASTEIGER

@<TRIPOS>ATOM
      1 P          22.6605   71.2532   -2.4825 P.3     1  UNL1        0.2189
      2 O          22.3518   72.6986   -2.5520 O.2     1  UNL1       -0.5170
      3 O          24.0507   70.9642   -3.2419 O.3     1  UNL1       -0.4371
      4 O          22.7865   70.8043   -0.9432 O.3     1  UNL1       -0.3112
      5 C          21.4892   70.9481   -0.3627 C.3     1  UNL1        0.1811
      6 C          23.2960   71.9606    2.5763 C.3     1  UNL1        0.2383
      7 C          22.6850   73.2737    2.0235 C.3     1  UNL1        0.1895
      8 O          22.4034   74.1907    3.0831 O.3     1  UNL1       -0.3779
      9 C          21.3743   72.7701    1.3649 C.3     1  UNL1        0.1713
     10 C          21.6277   71.2699    1.1263 C.3     1  UNL1        0.1764
     11 O          22.9671   70.9842    1.5653 O.3     1  UNL1       -0.3308
     12 O          20.2662   72.9632    2.2462 O.3     1  UNL1       -0.3794
     13 H          22.0277   74.9827    2.6740 H       1  UNL1        0.2106
     14 H          20.1959   73.9145    2.4035 H       1  UNL1        0.2105
     15 N          24.7474   72.0851    2.7203 N.ar    1  UNL1       -0.2551
     16 C          25.5286   71.0021    2.5618 C.ar    1  UNL1        0.3323
     17 N          26.8661   71.0901    2.6853 N.ar    1  UNL1       -0.2743
     18 C          27.4454   72.2695    2.9812 C.ar    1  UNL1        0.2626
     19 C          26.6346   73.4176    3.1566 C.ar    1  UNL1        0.0795
     20 C          25.2963   73.3022    3.0228 C.ar    1  UNL1        0.0869
     21 O          25.0203   69.9314    2.2942 O.2     1  UNL1       -0.2464
     22 O          28.6556   72.3492    3.0979 O.2     1  UNL1       -0.2670
     23 H          27.4149   70.2991    2.5634 H       1  UNL1        0.1734
     24 O          21.4799   70.4186   -3.1913 O.3     1  UNL1       -0.2703
     25 P          20.7686   71.4133   -4.2376 P.3     1  UNL1        0.2208
     26 O          20.0945   72.5046   -3.5002 O.2     1  UNL1       -0.5170
     27 O          21.8786   72.0381   -5.2233 O.3     1  UNL1       -0.4371
     28 O          19.6832   70.5979   -5.1019 O.3     1  UNL1       -0.2858
     29 C          18.5515   71.4543   -5.2613 C.3     1  UNL1        0.2704
     30 C          17.3312   70.8145   -4.5972 C.3     1  UNL1        0.1967
     31 C          17.0714   69.4493   -5.2415 C.3     1  UNL1        0.1715
     32 C          16.9651   69.6360   -6.7592 C.3     1  UNL1        0.1694
     33 C          18.2150   70.3640   -7.2599 C.3     1  UNL1        0.1761
     34 O          17.5796   70.6467   -3.2003 O.3     1  UNL1       -0.3775
     35 O          15.8509   68.9042   -4.7357 O.3     1  UNL1       -0.3794
     36 O          15.8024   70.4069   -7.0655 O.3     1  UNL1       -0.3794
     37 O          18.2988   71.6514   -6.6505 O.3     1  UNL1       -0.3258
     38 H          17.7446   71.5280   -2.8384 H       1  UNL1        0.2106
     39 H          15.9587   68.8156   -3.7803 H       1  UNL1        0.2105
     40 H          15.0430   69.9144   -6.7277 H       1  UNL1        0.2105
     41 C          18.1348   70.5251   -8.7797 C.3     1  UNL1        0.1693
     42 O          17.5635   71.7964   -9.0935 O.3     1  UNL1       -0.3794
     43 H          17.5315   71.8584  -10.0581 H       1  UNL1        0.2105
@<TRIPOS>BOND
     1    15    16   ar
     2    15    20   ar
     3    15     6    1
     4    16    17   ar
     5    16    21    2
     6    17    18   ar
     7    17    23    1
     8    18    19   ar
     9    18    22    2
    10    19    20   ar
    11     6     7    1
    12     6    11    1
    13     7     8    1
    14     7     9    1
    15     8    13    1
    16     9    10    1
    17     9    12    1
    18    10    11    1
    19    10     5    1
    20    12    14    1
    21     5     4    1
    22     4     1    1
    23     1     2    2
    24     1     3    1
    25     1    24    1
    26    24    25    1
    27    25    26    2
    28    25    27    1
    29    25    28    1
    30    28    29    1
    31    29    30    1
    32    29    37    1
    33    30    31    1
    34    30    34    1
    35    31    32    1
    36    31    35    1
    37    32    33    1
    38    32    36    1
    39    33    41    1
    40    33    37    1
    41    41    42    1
    42    34    38    1
    43    35    39    1
    44    36    40    1
    45    42    43    1
@<TRIPOS>MOLECULE
GDU
 43 45 0 0 0
SMALL
GASTEIGER

@<TRIPOS>ATOM
      1 P          22.7849   72.8930   -4.7973 P.3     1  UNL1        0.2189
      2 O          22.6696   74.3200   -5.1715 O.2     1  UNL1       -0.5170
      3 O          24.2373   72.6219   -4.1570 O.3     1  UNL1       -0.4371
      4 O          21.6471   72.5264   -3.7213 O.3     1  UNL1       -0.3112
      5 C          22.0928   73.0285   -2.4604 C.3     1  UNL1        0.1811
      6 C          23.5037   71.4983    0.4713 C.3     1  UNL1        0.2383
      7 C          22.0850   71.9437    0.9093 C.3     1  UNL1        0.1895
      8 O          21.5612   71.0667    1.9092 O.3     1  UNL1       -0.3779
      9 C          21.2826   71.8182   -0.4119 C.3     1  UNL1        0.1713
     10 C          22.3613   71.8601   -1.5102 C.3     1  UNL1        0.1764
     11 O          23.6312   72.0412   -0.8601 O.3     1  UNL1       -0.3308
     12 O          20.5701   70.5801   -0.4480 O.3     1  UNL1       -0.3794
     13 H          20.6813   71.3978    2.1372 H       1  UNL1        0.2106
     14 H          19.9537   70.5899    0.2967 H       1  UNL1        0.2105
     15 N          24.5213   72.0639    1.3586 N.ar    1  UNL1       -0.2551
     16 C          25.2685   71.2474    2.1223 C.ar    1  UNL1        0.3323
     17 N          26.2132   71.7416    2.9440 N.ar    1  UNL1       -0.2743
     18 C          26.4192   73.0704    3.0218 C.ar    1  UNL1        0.2626
     19 C          25.6357   73.9429    2.2275 C.ar    1  UNL1        0.0795
     20 C          24.6980   73.4205    1.4088 C.ar    1  UNL1        0.0869
     21 O          25.0944   70.0465    2.0626 O.2     1  UNL1       -0.2464
     22 O          27.2708   73.5190    3.7689 O.2     1  UNL1       -0.2670
     23 H          26.7462   71.1373    3.4849 H       1  UNL1        0.1734
     24 O          22.5992   71.9785   -6.1094 O.3     1  UNL1       -0.2703
     25 P          21.0849   72.1867   -6.6129 P.3     1  UNL1        0.2208
     26 O          20.6155   73.5337   -6.2201 O.2     1  UNL1       -0.5170
     27 O          21.0286   72.0458   -8.2163 O.3     1  UNL1       -0.4371
     28 O          20.1375   71.0710   -5.9438 O.3     1  UNL1       -0.2858
     29 C          18.9814   71.7495   -5.4511 C.3     1  UNL1        0.2704
     30 C          18.3932   70.9662   -4.2765 C.3     1  UNL1        0.1967
     31 C          18.0315   69.5549   -4.7495 C.3     1  UNL1        0.1715
     32 C          17.1225   69.6680   -5.9786 C.3     1  UNL1        0.1694
     33 C          17.8085   70.5488   -7.0257 C.3     1  UNL1        0.1761
     34 O          19.3558   70.8877   -3.2236 O.3     1  UNL1       -0.3775
     35 O          17.3469   68.8593   -3.7055 O.3     1  UNL1       -0.3794
     36 O          15.8757   70.2520   -5.5987 O.3     1  UNL1       -0.3794
     37 O          18.0151   71.8567   -6.4939 O.3     1  UNL1       -0.3258
     38 H          19.5588   71.7963   -2.9629 H       1  UNL1        0.2106
     39 H          17.9494   68.8226   -2.9518 H       1  UNL1        0.2105
     40 H          15.4836   69.6684   -4.9361 H       1  UNL1        0.2105
     41 C          16.9241   70.6403   -8.2712 C.3     1  UNL1        0.1693
     42 O          17.6731   70.2322   -9.4173 O.3     1  UNL1       -0.3794
     43 H          17.0810   70.3036  -10.1786 H       1  UNL1        0.2105
@<TRIPOS>BOND
     1    15    16   ar
     2    15    20   ar
     3    15     6    1
     4    16    17   ar
     5    16    21    2
     6    17    18   ar
     7    17    23    1
     8    18    19   ar
     9    18    22    2
    10    19    20   ar
    11     6     7    1
    12     6    11    1
    13     7     8    1
    14     7     9    1
    15     8    13    1
    16     9    10    1
    17     9    12    1
    18    10    11    1
    19    10     5    1
    20    12    14    1
    21     5     4    1
    22     4     1    1
    23     1     2    2
    24     1     3    1
    25     1    24    1
    26    24    25    1
    27    25    26    2
    28    25    27    1
    29    25    28    1
    30    28    29    1
    31    29    30    1
    32    29    37    1
    33    30    31    1
    34    30    34    1
    35    31    32    1
    36    31    35    1
    37    32    33    1
    38    32    36    1
    39    33    41    1
    40    33    37    1
    41    41    42    1
    42    34    38    1
    43    35    39    1
    44    36    40    1
    45    42    43    1
