@<TRIPOS>MOLECULE
*****
 43 45 0 0 0
SMALL
GASTEIGER

@<TRIPOS>ATOM
      1 P          22.8319   71.8648   -2.3540 P.3     1  UNL1        0.2189
      2 O          23.2079   73.3092   -1.7297 O.co2   1  UNL1       -0.4371
      3 O          23.5023   71.5437   -3.6574 O.2     1  UNL1       -0.5170
      4 O          21.2141   71.8604   -2.3761 O.3     1  UNL1       -0.3112
      5 C          20.5552   71.4484   -3.5609 C.3     1  UNL1        0.1811
      6 O          18.6060   72.2281   -4.7298 O.3     1  UNL1       -0.3308
      7 O          17.0130   71.0271   -2.4913 O.3     1  UNL1       -0.3794
      8 O          16.7770   69.1549   -4.4600 O.3     1  UNL1       -0.3779
      9 C          18.2181   70.5580   -3.0940 C.3     1  UNL1        0.1713
     10 C          17.9293   69.9729   -4.4607 C.3     1  UNL1        0.1895
     11 C          19.0721   71.7710   -3.4413 C.3     1  UNL1        0.1764
     12 C          17.7591   71.2219   -5.3086 C.3     1  UNL1        0.2383
     13 H          16.4513   70.2701   -2.2603 H       1  UNL1        0.2105
     14 H          16.9351   68.3738   -3.9071 H       1  UNL1        0.2106
     15 O          16.0196   70.3257   -7.3455 O.2     1  UNL1       -0.2464
     16 O          19.3647   70.4578  -10.5132 O.2     1  UNL1       -0.2670
     17 N          18.1488   71.0138   -6.6747 N.ar    1  UNL1       -0.2551
     18 N          17.6866   70.3924   -8.9211 N.ar    1  UNL1       -0.2743
     19 C          17.1984   70.5609   -7.6191 C.ar    1  UNL1        0.3323
     20 C          19.4606   71.2586   -7.0660 C.ar    1  UNL1        0.0869
     21 C          19.9106   71.0917   -8.3114 C.ar    1  UNL1        0.0795
     22 C          18.9815   70.6211   -9.3589 C.ar    1  UNL1        0.2626
     23 H          17.0424   70.0772   -9.5960 H       1  UNL1        0.1734
     24 O          23.1816   70.8458   -1.1487 O.3     1  UNL1       -0.2703
     25 P          22.4169   70.5462    0.2435 P.3     1  UNL1        0.2208
     26 O          23.4845   69.6534    1.0685 O.co2   1  UNL1       -0.4371
     27 O          21.0691   69.9054    0.0799 O.2     1  UNL1       -0.5170
     28 O          22.3938   71.9661    1.0107 O.3     1  UNL1       -0.2858
     29 O          21.3621   72.3869    3.1023 O.3     1  UNL1       -0.3258
     30 O          20.9862   76.1368    1.4149 O.3     1  UNL1       -0.3794
     31 O          22.8834   75.7173    3.5298 O.3     1  UNL1       -0.3794
     32 O          20.6383   73.7752   -0.2225 O.3     1  UNL1       -0.3775
     33 C          21.6234   74.8833    1.6757 C.3     1  UNL1        0.1715
     34 C          21.8722   74.7758    3.1814 C.3     1  UNL1        0.1694
     35 C          20.7140   73.7524    1.1989 C.3     1  UNL1        0.1967
     36 C          22.3064   73.3565    3.5713 C.3     1  UNL1        0.1761
     37 C          21.2092   72.3878    1.6816 C.3     1  UNL1        0.2704
     38 H          21.5587   76.8592    1.7149 H       1  UNL1        0.2105
     39 H          22.5970   76.6094    3.2779 H       1  UNL1        0.2105
     40 H          20.3234   74.6440   -0.5155 H       1  UNL1        0.2106
     41 O          21.0993   73.0560    5.6112 O.3     1  UNL1       -0.3794
     42 C          22.4074   73.1849    5.0854 C.3     1  UNL1        0.1693
     43 H          21.1480   72.9458    6.5742 H       1  UNL1        0.2105
@<TRIPOS>UNITY_ATOM_ATTR
2 1
charge -1
26 1
charge -1
@<TRIPOS>BOND
     1    25    28    1
     2    25    24    1
     3    25    26    1
     4    25    27    2
     5     1     4    1
     6     1    24    1
     7     1     2    1
     8     1     3    2
     9     6    11    1
    10     6    12    1
    11    29    36    1
    12    29    37    1
    13     7     9    1
    14     7    13    1
    15     8    10    1
    16     8    14    1
    17    28    37    1
    18     4     5    1
    19    30    33    1
    20    30    38    1
    21    31    34    1
    22    31    39    1
    23    32    35    1
    24    32    40    1
    25    41    42    1
    26    41    43    1
    27    15    19    2
    28    16    22    2
    29    17    12    1
    30    17    19   ar
    31    17    20   ar
    32    18    19   ar
    33    18    22   ar
    34    18    23    1
    35     9    10    1
    36     9    11    1
    37    10    12    1
    38    11     5    1
    39    33    34    1
    40    33    35    1
    41    34    36    1
    42    35    37    1
    43    36    42    1
    44    20    21   ar
    45    21    22   ar
@<TRIPOS>MOLECULE
*****
 43 45 0 0 0
SMALL
GASTEIGER

@<TRIPOS>ATOM
      1 P          22.8536   71.8024   -2.4261 P.3     1  UNL1        0.2189
      2 O          23.6548   73.2026   -2.5481 O.co2   1  UNL1       -0.4371
      3 O          23.4221   70.6742   -3.2356 O.2     1  UNL1       -0.5170
      4 O          21.3209   72.2018   -2.7568 O.3     1  UNL1       -0.3112
      5 C          20.5728   71.3589   -3.6156 C.3     1  UNL1        0.1811
      6 O          18.6361   72.1852   -4.7733 O.3     1  UNL1       -0.3308
      7 O          17.0256   70.9941   -2.5421 O.3     1  UNL1       -0.3794
      8 O          16.7508   69.1441   -4.5267 O.3     1  UNL1       -0.3779
      9 C          18.2204   70.5081   -3.1515 C.3     1  UNL1        0.1713
     10 C          17.9181   69.9406   -4.5226 C.3     1  UNL1        0.1895
     11 C          19.0962   71.7080   -3.4899 C.3     1  UNL1        0.1764
     12 C          17.7694   71.2000   -5.3592 C.3     1  UNL1        0.2383
     13 H          16.4503   70.2456   -2.3166 H       1  UNL1        0.2105
     14 H          16.8955   68.3554   -3.9811 H       1  UNL1        0.2106
     15 O          16.0109   70.3483   -7.3988 O.2     1  UNL1       -0.2464
     16 O          19.3501   70.4528  -10.5738 O.2     1  UNL1       -0.2670
     17 N          18.1525   70.9968   -6.7279 N.ar    1  UNL1       -0.2551
     18 N          17.6750   70.4012   -8.9781 N.ar    1  UNL1       -0.2743
     19 C          17.1927   70.5668   -7.6735 C.ar    1  UNL1        0.3323
     20 C          19.4671   71.2238   -7.1205 C.ar    1  UNL1        0.0869
     21 C          19.9113   71.0600   -8.3684 C.ar    1  UNL1        0.0795
     22 C          18.9723   70.6127   -9.4173 C.ar    1  UNL1        0.2626
     23 H          17.0242   70.1018   -9.6539 H       1  UNL1        0.1734
     24 O          22.8242   71.5382   -0.8316 O.3     1  UNL1       -0.2703
     25 P          22.0180   70.4486    0.0492 P.3     1  UNL1        0.2208
     26 O          23.1910   69.4925    0.6212 O.co2   1  UNL1       -0.4371
     27 O          20.9406   69.7238   -0.7043 O.2     1  UNL1       -0.5170
     28 O          21.4968   71.2696    1.3374 O.3     1  UNL1       -0.2858
     29 O          22.0453   73.5436    0.9570 O.3     1  UNL1       -0.3258
     30 O          20.3724   73.8883    4.7164 O.3     1  UNL1       -0.3794
     31 O          18.9327   74.8600    2.4293 O.3     1  UNL1       -0.3794
     32 O          22.0218   71.5977    4.0745 O.3     1  UNL1       -0.3775
     33 C          20.5161   73.3520    3.3985 C.3     1  UNL1        0.1715
     34 C          20.3073   74.4866    2.3936 C.3     1  UNL1        0.1694
     35 C          21.9145   72.7549    3.2523 C.3     1  UNL1        0.1967
     36 C          20.7064   74.0522    0.9768 C.3     1  UNL1        0.1761
     37 C          22.2290   72.4026    1.7973 C.3     1  UNL1        0.2704
     38 H          19.4864   74.2686    4.8160 H       1  UNL1        0.2105
     39 H          18.6934   75.1316    3.3294 H       1  UNL1        0.2105
     40 H          21.8207   71.8340    4.9929 H       1  UNL1        0.2106
     41 O          21.4500   74.8816   -1.1370 O.3     1  UNL1       -0.3794
     42 C          20.6559   75.2140   -0.0131 C.3     1  UNL1        0.1693
     43 H          21.4270   75.6118   -1.7757 H       1  UNL1        0.2105
@<TRIPOS>UNITY_ATOM_ATTR
2 1
charge -1
26 1
charge -1
@<TRIPOS>BOND
     1    25    28    1
     2    25    24    1
     3    25    26    1
     4    25    27    2
     5     1     4    1
     6     1    24    1
     7     1     2    1
     8     1     3    2
     9     6    11    1
    10     6    12    1
    11    29    36    1
    12    29    37    1
    13     7     9    1
    14     7    13    1
    15     8    10    1
    16     8    14    1
    17    28    37    1
    18     4     5    1
    19    30    33    1
    20    30    38    1
    21    31    34    1
    22    31    39    1
    23    32    35    1
    24    32    40    1
    25    41    42    1
    26    41    43    1
    27    15    19    2
    28    16    22    2
    29    17    12    1
    30    17    19   ar
    31    17    20   ar
    32    18    19   ar
    33    18    22   ar
    34    18    23    1
    35     9    10    1
    36     9    11    1
    37    10    12    1
    38    11     5    1
    39    33    34    1
    40    33    35    1
    41    34    36    1
    42    35    37    1
    43    36    42    1
    44    20    21   ar
    45    21    22   ar
@<TRIPOS>MOLECULE
*****
 43 45 0 0 0
SMALL
GASTEIGER

@<TRIPOS>ATOM
      1 P          21.6238   70.4733   -1.1614 P.3     1  UNL1        0.2189
      2 O          23.2000   70.7202   -1.4299 O.co2   1  UNL1       -0.4371
      3 O          21.2923   69.9010    0.1854 O.2     1  UNL1       -0.5170
      4 O          21.1455   69.5966   -2.4345 O.3     1  UNL1       -0.3112
      5 C          20.7631   70.2758   -3.6178 C.3     1  UNL1        0.1811
      6 O          19.0343   71.6154   -4.6129 O.3     1  UNL1       -0.3308
      7 O          17.2242   70.5256   -2.4853 O.3     1  UNL1       -0.3794
      8 O          16.5579   69.0215   -4.6602 O.3     1  UNL1       -0.3779
      9 C          18.2878   69.8795   -3.1828 C.3     1  UNL1        0.1713
     10 C          17.8656   69.5537   -4.6003 C.3     1  UNL1        0.1895
     11 C          19.3924   70.9045   -3.4077 C.3     1  UNL1        0.1764
     12 C          17.9778   70.9071   -5.2814 C.3     1  UNL1        0.2383
     13 H          16.5069   69.8906   -2.3299 H       1  UNL1        0.2105
     14 H          16.5383   68.1607   -4.2136 H       1  UNL1        0.2106
     15 O          16.0831   70.4670   -7.3295 O.2     1  UNL1       -0.2464
     16 O          19.3359   70.4865  -10.5944 O.2     1  UNL1       -0.2670
     17 N          18.3018   70.7934   -6.6755 N.ar    1  UNL1       -0.2551
     18 N          17.7043   70.4772   -8.9535 N.ar    1  UNL1       -0.2743
     19 C          17.2757   70.5715   -7.6233 C.ar    1  UNL1        0.3323
     20 C          19.6246   70.9021   -7.0905 C.ar    1  UNL1        0.0869
     21 C          20.0169   70.8086   -8.3628 C.ar    1  UNL1        0.0795
     22 C          19.0070   70.5772   -9.4157 C.ar    1  UNL1        0.2626
     23 H          17.0068   70.3224   -9.6313 H       1  UNL1        0.1734
     24 O          20.9736   71.9240   -1.4544 O.3     1  UNL1       -0.2703
     25 P          21.2047   73.3549   -0.7389 P.3     1  UNL1        0.2208
     26 O          19.7695   74.0848   -0.8969 O.co2   1  UNL1       -0.4371
     27 O          22.3616   74.1381   -1.2886 O.2     1  UNL1       -0.5170
     28 O          21.3164   73.0117    0.8342 O.3     1  UNL1       -0.2858
     29 O          22.4511   74.8072    1.8857 O.3     1  UNL1       -0.3258
     30 O          22.0487   72.2887    5.1332 O.3     1  UNL1       -0.3794
     31 O          20.4474   74.6677    4.9767 O.3     1  UNL1       -0.3794
     32 O          22.6301   71.1915    2.5183 O.3     1  UNL1       -0.3775
     33 C          21.6531   72.9026    3.9035 C.3     1  UNL1        0.1715
     34 C          21.5638   74.4133    4.1287 C.3     1  UNL1        0.1694
     35 C          22.6890   72.5796    2.8284 C.3     1  UNL1        0.1967
     36 C          21.4067   75.1632    2.7990 C.3     1  UNL1        0.1761
     37 C          22.4715   73.4147    1.5654 C.3     1  UNL1        0.2704
     38 H          21.3949   72.4896    5.8200 H       1  UNL1        0.2105
     39 H          20.5588   74.1880    5.8126 H       1  UNL1        0.2105
     40 H          22.7695   70.6737    3.3259 H       1  UNL1        0.2106
     41 O          21.9729   76.9493    4.2818 O.3     1  UNL1       -0.3794
     42 C          21.4739   76.6775    2.9851 C.3     1  UNL1        0.1693
     43 H          22.0214   77.9094    4.4142 H       1  UNL1        0.2105
@<TRIPOS>UNITY_ATOM_ATTR
2 1
charge -1
26 1
charge -1
@<TRIPOS>BOND
     1    25    28    1
     2    25    24    1
     3    25    26    1
     4    25    27    2
     5     1     4    1
     6     1    24    1
     7     1     2    1
     8     1     3    2
     9     6    11    1
    10     6    12    1
    11    29    36    1
    12    29    37    1
    13     7     9    1
    14     7    13    1
    15     8    10    1
    16     8    14    1
    17    28    37    1
    18     4     5    1
    19    30    33    1
    20    30    38    1
    21    31    34    1
    22    31    39    1
    23    32    35    1
    24    32    40    1
    25    41    42    1
    26    41    43    1
    27    15    19    2
    28    16    22    2
    29    17    12    1
    30    17    19   ar
    31    17    20   ar
    32    18    19   ar
    33    18    22   ar
    34    18    23    1
    35     9    10    1
    36     9    11    1
    37    10    12    1
    38    11     5    1
    39    33    34    1
    40    33    35    1
    41    34    36    1
    42    35    37    1
    43    36    42    1
    44    20    21   ar
    45    21    22   ar
@<TRIPOS>MOLECULE
*****
 43 45 0 0 0
SMALL
GASTEIGER

@<TRIPOS>ATOM
      1 P          23.0323   71.8896   -3.2656 P.3     1  UNL1        0.2189
      2 O          23.8136   72.8897   -4.2690 O.co2   1  UNL1       -0.4371
      3 O          23.5838   70.4955   -3.2038 O.2     1  UNL1       -0.5170
      4 O          21.4847   72.0134   -3.7210 O.3     1  UNL1       -0.3112
      5 C          20.6297   70.9014   -3.5201 C.3     1  UNL1        0.1811
      6 O          18.7979   71.9736   -4.6464 O.3     1  UNL1       -0.3308
      7 O          17.0558   70.8611   -2.4743 O.3     1  UNL1       -0.3794
      8 O          16.6057   69.1372   -4.5387 O.3     1  UNL1       -0.3779
      9 C          18.1984   70.2803   -3.1007 C.3     1  UNL1        0.1713
     10 C          17.8492   69.8070   -4.4963 C.3     1  UNL1        0.1895
     11 C          19.1963   71.3963   -3.3837 C.3     1  UNL1        0.1764
     12 C          17.8382   71.1101   -5.2774 C.3     1  UNL1        0.2383
     13 H          16.4043   70.1675   -2.2835 H       1  UNL1        0.2105
     14 H          16.6636   68.3149   -4.0276 H       1  UNL1        0.2106
     15 O          16.0299   70.4415   -7.3416 O.2     1  UNL1       -0.2464
     16 O          19.3715   70.4333  -10.5157 O.2     1  UNL1       -0.2670
     17 N          18.2085   70.9274   -6.6525 N.ar    1  UNL1       -0.2551
     18 N          17.6952   70.4381   -8.9204 N.ar    1  UNL1       -0.2743
     19 C          17.2236   70.5918   -7.6105 C.ar    1  UNL1        0.3323
     20 C          19.5354   71.0814   -7.0392 C.ar    1  UNL1        0.0869
     21 C          19.9691   70.9301   -8.2923 C.ar    1  UNL1        0.0795
     22 C          19.0039   70.5794   -9.3541 C.ar    1  UNL1        0.2626
     23 H          17.0270   70.2039   -9.6048 H       1  UNL1        0.1734
     24 O          23.0625   72.6879   -1.8604 O.3     1  UNL1       -0.2703
     25 P          23.1716   74.2684   -1.5395 P.3     1  UNL1        0.2208
     26 O          21.6578   74.7965   -1.7566 O.co2   1  UNL1       -0.4371
     27 O          24.2030   74.9923   -2.3558 O.2     1  UNL1       -0.5170
     28 O          23.4057   74.3463    0.0555 O.3     1  UNL1       -0.2858
     29 O          21.8463   73.6934    1.7165 O.3     1  UNL1       -0.3258
     30 O          23.8289   76.6558    3.8008 O.3     1  UNL1       -0.3794
     31 O          24.2560   73.9028    4.4983 O.3     1  UNL1       -0.3794
     32 O          23.2842   76.9938    0.9779 O.3     1  UNL1       -0.3775
     33 C          23.7073   75.5721    2.8755 C.3     1  UNL1        0.1715
     34 C          23.2084   74.3436    3.6388 C.3     1  UNL1        0.1694
     35 C          22.7185   75.9613    1.7781 C.3     1  UNL1        0.1967
     36 C          22.7997   73.2211    2.6755 C.3     1  UNL1        0.1761
     37 C          22.3409   74.7620    0.9068 C.3     1  UNL1        0.2704
     38 H          24.4557   76.4154    4.4999 H       1  UNL1        0.2105
     39 H          24.5050   74.6210    5.1011 H       1  UNL1        0.2105
     40 H          23.5187   77.7474    1.5410 H       1  UNL1        0.2106
     41 O          21.6288   72.5167    4.6355 O.3     1  UNL1       -0.3794
     42 C          22.1524   72.0471    3.4069 C.3     1  UNL1        0.1693
     43 H          21.2134   71.7803    5.1119 H       1  UNL1        0.2105
@<TRIPOS>UNITY_ATOM_ATTR
2 1
charge -1
26 1
charge -1
@<TRIPOS>BOND
     1    25    28    1
     2    25    24    1
     3    25    26    1
     4    25    27    2
     5     1     4    1
     6     1    24    1
     7     1     2    1
     8     1     3    2
     9     6    11    1
    10     6    12    1
    11    29    36    1
    12    29    37    1
    13     7     9    1
    14     7    13    1
    15     8    10    1
    16     8    14    1
    17    28    37    1
    18     4     5    1
    19    30    33    1
    20    30    38    1
    21    31    34    1
    22    31    39    1
    23    32    35    1
    24    32    40    1
    25    41    42    1
    26    41    43    1
    27    15    19    2
    28    16    22    2
    29    17    12    1
    30    17    19   ar
    31    17    20   ar
    32    18    19   ar
    33    18    22   ar
    34    18    23    1
    35     9    10    1
    36     9    11    1
    37    10    12    1
    38    11     5    1
    39    33    34    1
    40    33    35    1
    41    34    36    1
    42    35    37    1
    43    36    42    1
    44    20    21   ar
    45    21    22   ar
@<TRIPOS>MOLECULE
*****
 43 45 0 0 0
SMALL
GASTEIGER

@<TRIPOS>ATOM
      1 P          22.9481   72.1126   -2.9995 P.3     1  UNL1        0.2189
      2 O          23.5559   70.6346   -3.2518 O.co2   1  UNL1       -0.4371
      3 O          22.8978   72.5403   -1.5622 O.2     1  UNL1       -0.5170
      4 O          21.5283   72.0862   -3.7749 O.3     1  UNL1       -0.3112
      5 C          20.6940   70.9515   -3.6194 C.3     1  UNL1        0.1811
      6 O          18.8192   71.9728   -4.7221 O.3     1  UNL1       -0.3308
      7 O          17.1398   70.8365   -2.5132 O.3     1  UNL1       -0.3794
      8 O          16.6955   69.0874   -4.5577 O.3     1  UNL1       -0.3779
      9 C          18.2850   70.2776   -3.1547 C.3     1  UNL1        0.1713
     10 C          17.9236   69.7861   -4.5409 C.3     1  UNL1        0.1895
     11 C          19.2519   71.4142   -3.4623 C.3     1  UNL1        0.1764
     12 C          17.8694   71.0828   -5.3308 C.3     1  UNL1        0.2383
     13 H          16.5079   70.1295   -2.3066 H       1  UNL1        0.2105
     14 H          16.7810   68.2705   -4.0419 H       1  UNL1        0.2106
     15 O          16.0263   70.4541   -7.3767 O.2     1  UNL1       -0.2464
     16 O          19.3312   70.3979  -10.5885 O.2     1  UNL1       -0.2670
     17 N          18.2208   70.8986   -6.7106 N.ar    1  UNL1       -0.2551
     18 N          17.6734   70.4268   -8.9743 N.ar    1  UNL1       -0.2743
     19 C          17.2193   70.5841   -7.6585 C.ar    1  UNL1        0.3323
     20 C          19.5458   71.0303   -7.1118 C.ar    1  UNL1        0.0869
     21 C          19.9626   70.8759   -8.3703 C.ar    1  UNL1        0.0795
     22 C          18.9794   70.5463   -9.4223 C.ar    1  UNL1        0.2626
     23 H          16.9934   70.2070   -9.6518 H       1  UNL1        0.1734
     24 O          23.8629   73.0486   -3.9482 O.3     1  UNL1       -0.2703
     25 P          24.0261   74.6554   -4.0143 P.3     1  UNL1        0.2208
     26 O          25.6291   74.8680   -3.9629 O.co2   1  UNL1       -0.4371
     27 O          23.2689   75.3951   -2.9496 O.2     1  UNL1       -0.5170
     28 O          23.6112   75.0465   -5.5242 O.3     1  UNL1       -0.2858
     29 O          21.7039   76.1645   -6.3780 O.3     1  UNL1       -0.3258
     30 O          22.2190   73.3623   -9.3668 O.3     1  UNL1       -0.3794
     31 O          22.8605   76.1147   -9.8778 O.3     1  UNL1       -0.3794
     32 O          22.6816   72.6292   -6.6049 O.3     1  UNL1       -0.3775
     33 C          22.6412   74.2822   -8.3564 C.3     1  UNL1        0.1715
     34 C          22.1337   75.6753   -8.7337 C.3     1  UNL1        0.1694
     35 C          22.0638   73.8456   -7.0112 C.3     1  UNL1        0.1967
     36 C          22.3144   76.6637   -7.5738 C.3     1  UNL1        0.1761
     37 C          22.2536   74.9206   -5.9395 C.3     1  UNL1        0.2704
     38 H          22.5827   73.6335  -10.2234 H       1  UNL1        0.2105
     39 H          22.7384   75.4816  -10.6027 H       1  UNL1        0.2105
     40 H          22.5541   71.9569   -7.2916 H       1  UNL1        0.2106
     41 O          22.5645   78.7716   -8.6706 O.3     1  UNL1       -0.3794
     42 C          21.6727   78.0173   -7.8706 C.3     1  UNL1        0.1693
     43 H          22.1692   79.6356   -8.8677 H       1  UNL1        0.2105
@<TRIPOS>UNITY_ATOM_ATTR
2 1
charge -1
26 1
charge -1
@<TRIPOS>BOND
     1    25    28    1
     2    25    24    1
     3    25    26    1
     4    25    27    2
     5     1     4    1
     6     1    24    1
     7     1     2    1
     8     1     3    2
     9     6    11    1
    10     6    12    1
    11    29    36    1
    12    29    37    1
    13     7     9    1
    14     7    13    1
    15     8    10    1
    16     8    14    1
    17    28    37    1
    18     4     5    1
    19    30    33    1
    20    30    38    1
    21    31    34    1
    22    31    39    1
    23    32    35    1
    24    32    40    1
    25    41    42    1
    26    41    43    1
    27    15    19    2
    28    16    22    2
    29    17    12    1
    30    17    19   ar
    31    17    20   ar
    32    18    19   ar
    33    18    22   ar
    34    18    23    1
    35     9    10    1
    36     9    11    1
    37    10    12    1
    38    11     5    1
    39    33    34    1
    40    33    35    1
    41    34    36    1
    42    35    37    1
    43    36    42    1
    44    20    21   ar
    45    21    22   ar
@<TRIPOS>MOLECULE
*****
 43 45 0 0 0
SMALL
GASTEIGER

@<TRIPOS>ATOM
      1 P          21.7742   73.6362   -5.6723 P.3     1  UNL1        0.2189
      2 O          20.4956   74.2038   -4.8596 O.co2   1  UNL1       -0.4371
      3 O          22.8873   74.6224   -5.8716 O.2     1  UNL1       -0.5170
      4 O          21.1328   73.0182   -7.0230 O.3     1  UNL1       -0.3112
      5 C          20.3939   73.8764   -7.8747 C.3     1  UNL1        0.1811
      6 O          19.6017   71.6826   -8.4523 O.3     1  UNL1       -0.3308
      7 O          17.9137   73.0419  -10.5244 O.3     1  UNL1       -0.3794
      8 O          16.1265   72.5666   -8.5203 O.3     1  UNL1       -0.3779
      9 C          18.2672   73.4860   -9.2156 C.3     1  UNL1        0.1713
     10 C          17.4874   72.7157   -8.1705 C.3     1  UNL1        0.1895
     11 C          19.6973   73.0393   -8.9387 C.3     1  UNL1        0.1764
     12 C          18.2307   71.3911   -8.1357 C.3     1  UNL1        0.2383
     13 H          17.0043   73.3159  -10.7240 H       1  UNL1        0.2105
     14 H          15.6975   73.4364   -8.5287 H       1  UNL1        0.2106
     15 O          15.9580   70.0692   -7.1035 O.2     1  UNL1       -0.2464
     16 O          18.1243   69.0253   -3.1717 O.2     1  UNL1       -0.2670
     17 N          18.1731   70.7646   -6.8451 N.ar    1  UNL1       -0.2551
     18 N          17.0385   69.5504   -5.1467 N.ar    1  UNL1       -0.2743
     19 C          16.9831   70.1283   -6.4214 C.ar    1  UNL1        0.3323
     20 C          19.2884   70.7846   -6.0147 C.ar    1  UNL1        0.0869
     21 C          19.3246   70.2299   -4.8014 C.ar    1  UNL1        0.0795
     22 C          18.1227   69.5450   -4.2834 C.ar    1  UNL1        0.2626
     23 H          16.2210   69.1018   -4.8302 H       1  UNL1        0.1734
     24 O          22.1850   72.3193   -4.8296 O.3     1  UNL1       -0.2703
     25 P          23.1077   72.1461   -3.5137 P.3     1  UNL1        0.2208
     26 O          24.3336   73.1670   -3.7832 O.co2   1  UNL1       -0.4371
     27 O          23.5289   70.7315   -3.2393 O.2     1  UNL1       -0.5170
     28 O          22.2584   72.8335   -2.3259 O.3     1  UNL1       -0.2858
     29 O          21.5645   71.1436   -0.8161 O.3     1  UNL1       -0.3258
     30 O          19.5932   74.3669    0.8500 O.3     1  UNL1       -0.3794
     31 O          21.8845   73.2624    2.1835 O.3     1  UNL1       -0.3794
     32 O          19.7824   74.1203   -2.0280 O.3     1  UNL1       -0.3775
     33 C          20.6638   73.7018    0.1740 C.3     1  UNL1        0.1715
     34 C          21.2171   72.6183    1.1018 C.3     1  UNL1        0.1694
     35 C          20.1313   73.0835   -1.1172 C.3     1  UNL1        0.1967
     36 C          22.1837   71.6897    0.3544 C.3     1  UNL1        0.1761
     37 C          21.1525   72.1394   -1.7545 C.3     1  UNL1        0.2704
     38 H          19.9248   74.7621    1.6705 H       1  UNL1        0.2105
     39 H          21.2633   73.8461    2.6467 H       1  UNL1        0.2105
     40 H          19.1353   74.7109   -1.6130 H       1  UNL1        0.2106
     41 O          22.0392   69.3298    0.6989 O.3     1  UNL1       -0.3794
     42 C          22.6252   70.5096    1.2173 C.3     1  UNL1        0.1693
     43 H          22.3117   68.5703    1.2380 H       1  UNL1        0.2105
@<TRIPOS>UNITY_ATOM_ATTR
2 1
charge -1
26 1
charge -1
@<TRIPOS>BOND
     1    25    28    1
     2    25    24    1
     3    25    26    1
     4    25    27    2
     5     1     4    1
     6     1    24    1
     7     1     2    1
     8     1     3    2
     9     6    11    1
    10     6    12    1
    11    29    36    1
    12    29    37    1
    13     7     9    1
    14     7    13    1
    15     8    10    1
    16     8    14    1
    17    28    37    1
    18     4     5    1
    19    30    33    1
    20    30    38    1
    21    31    34    1
    22    31    39    1
    23    32    35    1
    24    32    40    1
    25    41    42    1
    26    41    43    1
    27    15    19    2
    28    16    22    2
    29    17    12    1
    30    17    19   ar
    31    17    20   ar
    32    18    19   ar
    33    18    22   ar
    34    18    23    1
    35     9    10    1
    36     9    11    1
    37    10    12    1
    38    11     5    1
    39    33    34    1
    40    33    35    1
    41    34    36    1
    42    35    37    1
    43    36    42    1
    44    20    21   ar
    45    21    22   ar
@<TRIPOS>MOLECULE
*****
 43 45 0 0 0
SMALL
GASTEIGER

@<TRIPOS>ATOM
      1 P          22.8824   72.1705   -3.0382 P.3     1  UNL1        0.2189
      2 O          23.6737   70.7882   -3.3219 O.co2   1  UNL1       -0.4371
      3 O          22.7533   72.5411   -1.5899 O.2     1  UNL1       -0.5170
      4 O          21.4911   71.9943   -3.8451 O.3     1  UNL1       -0.3112
      5 C          20.6658   70.8848   -3.5355 C.3     1  UNL1        0.1811
      6 O          18.8197   72.0154   -4.5783 O.3     1  UNL1       -0.3308
      7 O          17.1038   70.7761   -2.4546 O.3     1  UNL1       -0.3794
      8 O          16.6339   69.1722   -4.6095 O.3     1  UNL1       -0.3779
      9 C          18.2404   70.2349   -3.1258 C.3     1  UNL1        0.1713
     10 C          17.8766   69.8416   -4.5423 C.3     1  UNL1        0.1895
     11 C          19.2332   71.3676   -3.3553 C.3     1  UNL1        0.1764
     12 C          17.8547   71.1872   -5.2472 C.3     1  UNL1        0.2383
     13 H          16.4557   70.0710   -2.2968 H       1  UNL1        0.2105
     14 H          16.6990   68.3221   -4.1471 H       1  UNL1        0.2106
     15 O          16.1656   71.9289   -7.3862 O.2     1  UNL1       -0.2464
     16 O          19.3229   70.7486  -10.5294 O.2     1  UNL1       -0.2670
     17 N          18.2100   71.0846   -6.6345 N.ar    1  UNL1       -0.2551
     18 N          17.7392   71.3408   -8.9495 N.ar    1  UNL1       -0.2743
     19 C          17.2886   71.4832   -7.6309 C.ar    1  UNL1        0.3323
     20 C          19.4601   70.5937   -6.9952 C.ar    1  UNL1        0.0869
     21 C          19.8739   70.4629   -8.2573 C.ar    1  UNL1        0.0795
     22 C          18.9717   70.8568   -9.3586 C.ar    1  UNL1        0.2626
     23 H          17.1140   71.6118   -9.6605 H       1  UNL1        0.1734
     24 O          23.6907   73.2432   -3.9376 O.3     1  UNL1       -0.2703
     25 P          23.6862   74.8596   -3.9216 P.3     1  UNL1        0.2208
     26 O          25.2071   75.2389   -4.3221 O.co2   1  UNL1       -0.4371
     27 O          23.2181   75.4609   -2.6281 O.2     1  UNL1       -0.5170
     28 O          22.8089   75.2784   -5.2100 O.3     1  UNL1       -0.2858
     29 O          22.8290   74.5601   -7.4684 O.3     1  UNL1       -0.3258
     30 O          22.2616   78.6060   -8.0678 O.3     1  UNL1       -0.3794
     31 O          20.0866   76.7865   -8.5225 O.3     1  UNL1       -0.3794
     32 O          24.0267   77.6917   -5.9636 O.3     1  UNL1       -0.3775
     33 C          22.1140   77.3562   -7.3885 C.3     1  UNL1        0.1715
     34 C          21.4370   76.3693   -8.3416 C.3     1  UNL1        0.1694
     35 C          23.4937   76.8458   -6.9769 C.3     1  UNL1        0.1967
     36 C          21.4847   74.9401   -7.7849 C.3     1  UNL1        0.1761
     37 C          23.4366   75.3988   -6.4839 C.3     1  UNL1        0.2704
     38 H          21.3891   78.9359   -8.3314 H       1  UNL1        0.2105
     39 H          20.0706   77.6906   -8.8740 H       1  UNL1        0.2105
     40 H          24.0579   78.6047   -6.2881 H       1  UNL1        0.2106
     41 O          19.5496   74.0517   -8.8688 O.3     1  UNL1       -0.3794
     42 C          20.9566   73.9174   -8.7886 C.3     1  UNL1        0.1693
     43 H          19.1996   73.4072   -9.5043 H       1  UNL1        0.2105
@<TRIPOS>UNITY_ATOM_ATTR
2 1
charge -1
26 1
charge -1
@<TRIPOS>BOND
     1    25    28    1
     2    25    24    1
     3    25    26    1
     4    25    27    2
     5     1     4    1
     6     1    24    1
     7     1     2    1
     8     1     3    2
     9     6    11    1
    10     6    12    1
    11    29    36    1
    12    29    37    1
    13     7     9    1
    14     7    13    1
    15     8    10    1
    16     8    14    1
    17    28    37    1
    18     4     5    1
    19    30    33    1
    20    30    38    1
    21    31    34    1
    22    31    39    1
    23    32    35    1
    24    32    40    1
    25    41    42    1
    26    41    43    1
    27    15    19    2
    28    16    22    2
    29    17    12    1
    30    17    19   ar
    31    17    20   ar
    32    18    19   ar
    33    18    22   ar
    34    18    23    1
    35     9    10    1
    36     9    11    1
    37    10    12    1
    38    11     5    1
    39    33    34    1
    40    33    35    1
    41    34    36    1
    42    35    37    1
    43    36    42    1
    44    20    21   ar
    45    21    22   ar
@<TRIPOS>MOLECULE
*****
 43 45 0 0 0
SMALL
GASTEIGER

@<TRIPOS>ATOM
      1 P          22.0120   70.6784   -2.7739 P.3     1  UNL1        0.2189
      2 O          23.5351   70.6681   -3.3194 O.co2   1  UNL1       -0.4371
      3 O          21.3085   69.3544   -2.8336 O.2     1  UNL1       -0.5170
      4 O          21.3129   71.8833   -3.5969 O.3     1  UNL1       -0.3112
      5 C          21.9601   73.1434   -3.6311 C.3     1  UNL1        0.1811
      6 O          21.9469   72.3935   -5.9139 O.3     1  UNL1       -0.3308
      7 O          23.1489   75.0537   -6.5985 O.3     1  UNL1       -0.3794
      8 O          20.5272   75.3967   -7.2660 O.3     1  UNL1       -0.3779
      9 C          22.1753   74.7321   -5.6066 C.3     1  UNL1        0.1713
     10 C          20.8345   74.4581   -6.2553 C.3     1  UNL1        0.1895
     11 C          22.5311   73.3699   -5.0242 C.3     1  UNL1        0.1764
     12 C          21.0297   73.0538   -6.8013 C.3     1  UNL1        0.2383
     13 H          22.9429   75.9199   -6.9847 H       1  UNL1        0.2105
     14 H          20.4125   76.2740   -6.8687 H       1  UNL1        0.2106
     15 O          19.6060   72.4597   -9.1674 O.2     1  UNL1       -0.2464
     16 O          16.3372   70.1855   -6.8471 O.2     1  UNL1       -0.2670
     17 N          19.8038   72.3077   -6.8447 N.ar    1  UNL1       -0.2551
     18 N          17.9797   71.3277   -8.0101 N.ar    1  UNL1       -0.2743
     19 C          19.1681   72.0652   -8.0846 C.ar    1  UNL1        0.3323
     20 C          19.2445   71.8248   -5.6666 C.ar    1  UNL1        0.0869
     21 C          18.1098   71.1242   -5.6125 C.ar    1  UNL1        0.0795
     22 C          17.3830   70.8272   -6.8637 C.ar    1  UNL1        0.2626
     23 H          17.5191   71.1468   -8.8616 H       1  UNL1        0.1734
     24 O          22.1627   71.2937   -1.2868 O.3     1  UNL1       -0.2703
     25 P          22.4102   70.5745    0.1396 P.3     1  UNL1        0.2208
     26 O          23.9187   70.0042    0.0107 O.co2   1  UNL1       -0.4371
     27 O          21.3839   69.5371    0.4919 O.2     1  UNL1       -0.5170
     28 O          22.5228   71.7898    1.1957 O.3     1  UNL1       -0.2858
     29 O          21.3633   72.3344    3.1897 O.3     1  UNL1       -0.3258
     30 O          21.5709   76.0959    1.4987 O.3     1  UNL1       -0.3794
     31 O          23.2112   75.4706    3.7718 O.3     1  UNL1       -0.3794
     32 O          21.1029   73.7829   -0.1778 O.3     1  UNL1       -0.3775
     33 C          22.0348   74.7787    1.8075 C.3     1  UNL1        0.1715
     34 C          22.1341   74.6496    3.3288 C.3     1  UNL1        0.1694
     35 C          21.0483   73.7573    1.2445 C.3     1  UNL1        0.1967
     36 C          22.3667   73.1915    3.7469 C.3     1  UNL1        0.1761
     37 C          21.3391   72.3471    1.7610 C.3     1  UNL1        0.2704
     38 H          22.1931   76.7492    1.8530 H       1  UNL1        0.2105
     39 H          23.0523   76.3885    3.5009 H       1  UNL1        0.2105
     40 H          20.9168   74.6809   -0.4923 H       1  UNL1        0.2106
     41 O          21.2749   73.8336    5.7730 O.3     1  UNL1       -0.3794
     42 C          22.3117   73.0155    5.2629 C.3     1  UNL1        0.1693
     43 H          21.2280   73.7316    6.7369 H       1  UNL1        0.2105
@<TRIPOS>UNITY_ATOM_ATTR
2 1
charge -1
26 1
charge -1
@<TRIPOS>BOND
     1    25    28    1
     2    25    24    1
     3    25    26    1
     4    25    27    2
     5     1     4    1
     6     1    24    1
     7     1     2    1
     8     1     3    2
     9     6    11    1
    10     6    12    1
    11    29    36    1
    12    29    37    1
    13     7     9    1
    14     7    13    1
    15     8    10    1
    16     8    14    1
    17    28    37    1
    18     4     5    1
    19    30    33    1
    20    30    38    1
    21    31    34    1
    22    31    39    1
    23    32    35    1
    24    32    40    1
    25    41    42    1
    26    41    43    1
    27    15    19    2
    28    16    22    2
    29    17    12    1
    30    17    19   ar
    31    17    20   ar
    32    18    19   ar
    33    18    22   ar
    34    18    23    1
    35     9    10    1
    36     9    11    1
    37    10    12    1
    38    11     5    1
    39    33    34    1
    40    33    35    1
    41    34    36    1
    42    35    37    1
    43    36    42    1
    44    20    21   ar
    45    21    22   ar
@<TRIPOS>MOLECULE
*****
 43 45 0 0 0
SMALL
GASTEIGER

@<TRIPOS>ATOM
      1 P          22.8972   73.6719   -4.1048 P.3     1  UNL1        0.2189
      2 O          22.1974   74.9335   -3.3727 O.co2   1  UNL1       -0.4371
      3 O          24.2744   73.3372   -3.6120 O.2     1  UNL1       -0.5170
      4 O          22.7806   74.0231   -5.6799 O.3     1  UNL1       -0.3112
      5 C          22.4002   72.9933   -6.5758 C.3     1  UNL1        0.1811
      6 O          21.2223   72.7929   -8.6605 O.3     1  UNL1       -0.3308
      7 O          22.0034   75.6443   -9.1611 O.3     1  UNL1       -0.3794
      8 O          19.4121   75.8728   -8.3430 O.3     1  UNL1       -0.3779
      9 C          21.6475   75.0083   -7.9346 C.3     1  UNL1        0.1713
     10 C          20.1542   74.7611   -7.8845 C.3     1  UNL1        0.1895
     11 C          22.2039   73.5902   -7.9627 C.3     1  UNL1        0.1764
     12 C          20.0054   73.5470   -8.7855 C.3     1  UNL1        0.2383
     13 H          21.6591   76.5517   -9.1664 H       1  UNL1        0.2105
     14 H          19.5394   76.6191   -7.7367 H       1  UNL1        0.2106
     15 O          17.3212   74.0209   -9.5261 O.2     1  UNL1       -0.2464
     16 O          15.8458   70.2863   -7.2640 O.2     1  UNL1       -0.2670
     17 N          18.8997   72.7143   -8.4043 N.ar    1  UNL1       -0.2551
     18 N          16.5888   72.1609   -8.3993 N.ar    1  UNL1       -0.2743
     19 C          17.5905   73.0411   -8.8281 C.ar    1  UNL1        0.3323
     20 C          19.1189   71.5877   -7.6191 C.ar    1  UNL1        0.0869
     21 C          18.1527   70.7592   -7.2176 C.ar    1  UNL1        0.0795
     22 C          16.7565   71.0291   -7.6172 C.ar    1  UNL1        0.2626
     23 H          15.6687   72.3688   -8.6822 H       1  UNL1        0.1734
     24 O          21.8092   72.4917   -3.9141 O.3     1  UNL1       -0.2703
     25 P          21.8834   71.1023   -3.0913 P.3     1  UNL1        0.2208
     26 O          23.4563   70.7266   -3.1385 O.co2   1  UNL1       -0.4371
     27 O          20.9742   70.0282   -3.6142 O.2     1  UNL1       -0.5170
     28 O          21.6102   71.5213   -1.5567 O.3     1  UNL1       -0.2858
     29 O          23.3187   72.7931   -0.5172 O.3     1  UNL1       -0.3258
     30 O          21.2176   71.6382    2.8447 O.3     1  UNL1       -0.3794
     31 O          21.0740   74.3633    1.9495 O.3     1  UNL1       -0.3794
     32 O          21.5578   69.7849    0.6472 O.3     1  UNL1       -0.3775
     33 C          21.3761   72.0374    1.4805 C.3     1  UNL1        0.1715
     34 C          22.0251   73.4227    1.4586 C.3     1  UNL1        0.1694
     35 C          22.2586   71.0187    0.7616 C.3     1  UNL1        0.1967
     36 C          22.4701   73.8035    0.0401 C.3     1  UNL1        0.1761
     37 C          22.6849   71.5165   -0.6206 C.3     1  UNL1        0.2704
     38 H          20.6578   72.2806    3.3067 H       1  UNL1        0.2105
     39 H          20.8009   74.1110    2.8456 H       1  UNL1        0.2105
     40 H          21.2937   69.4802    1.5288 H       1  UNL1        0.2106
     41 O          23.8213   75.3159    1.3034 O.3     1  UNL1       -0.3794
     42 C          23.2601   75.1103    0.0200 C.3     1  UNL1        0.1693
     43 H          24.3273   76.1440    1.3054 H       1  UNL1        0.2105
@<TRIPOS>UNITY_ATOM_ATTR
2 1
charge -1
26 1
charge -1
@<TRIPOS>BOND
     1    25    28    1
     2    25    24    1
     3    25    26    1
     4    25    27    2
     5     1     4    1
     6     1    24    1
     7     1     2    1
     8     1     3    2
     9     6    11    1
    10     6    12    1
    11    29    36    1
    12    29    37    1
    13     7     9    1
    14     7    13    1
    15     8    10    1
    16     8    14    1
    17    28    37    1
    18     4     5    1
    19    30    33    1
    20    30    38    1
    21    31    34    1
    22    31    39    1
    23    32    35    1
    24    32    40    1
    25    41    42    1
    26    41    43    1
    27    15    19    2
    28    16    22    2
    29    17    12    1
    30    17    19   ar
    31    17    20   ar
    32    18    19   ar
    33    18    22   ar
    34    18    23    1
    35     9    10    1
    36     9    11    1
    37    10    12    1
    38    11     5    1
    39    33    34    1
    40    33    35    1
    41    34    36    1
    42    35    37    1
    43    36    42    1
    44    20    21   ar
    45    21    22   ar
@<TRIPOS>MOLECULE
*****
 43 45 0 0 0
SMALL
GASTEIGER

@<TRIPOS>ATOM
      1 P          22.5736   72.7707   -4.1705 P.3     1  UNL1        0.2189
      2 O          23.0568   73.4351   -5.5642 O.co2   1  UNL1       -0.4371
      3 O          23.6002   71.9167   -3.4860 O.2     1  UNL1       -0.5170
      4 O          21.1864   72.0310   -4.5531 O.3     1  UNL1       -0.3112
      5 C          20.5828   71.1855   -3.5895 C.3     1  UNL1        0.1811
      6 O          18.6599   72.0696   -4.7273 O.3     1  UNL1       -0.3308
      7 O          17.0306   70.8608   -2.5194 O.3     1  UNL1       -0.3794
      8 O          16.7217   69.0577   -4.5418 O.3     1  UNL1       -0.3779
      9 C          18.2162   70.3666   -3.1403 C.3     1  UNL1        0.1713
     10 C          17.9028   69.8332   -4.5226 C.3     1  UNL1        0.1895
     11 C          19.1126   71.5578   -3.4547 C.3     1  UNL1        0.1764
     12 C          17.7756   71.1123   -5.3325 C.3     1  UNL1        0.2383
     13 H          16.4424   70.1180   -2.3089 H       1  UNL1        0.2105
     14 H          16.8529   68.2554   -4.0129 H       1  UNL1        0.2106
     15 O          15.9824   70.4280   -7.4048 O.2     1  UNL1       -0.2464
     16 O          19.3393   70.4414  -10.5626 O.2     1  UNL1       -0.2670
     17 N          18.1539   70.9310   -6.7056 N.ar    1  UNL1       -0.2551
     18 N          17.6553   70.4354   -8.9755 N.ar    1  UNL1       -0.2743
     19 C          17.1762   70.5870   -7.6680 C.ar    1  UNL1        0.3323
     20 C          19.4814   71.0945   -7.0861 C.ar    1  UNL1        0.0869
     21 C          19.9223   70.9451   -8.3369 C.ar    1  UNL1        0.0795
     22 C          18.9650   70.5860   -9.4030 C.ar    1  UNL1        0.2626
     23 H          16.9922   70.1955   -9.6629 H       1  UNL1        0.1734
     24 O          22.0795   74.0475   -3.3111 O.3     1  UNL1       -0.2703
     25 P          22.8618   74.9758   -2.2438 P.3     1  UNL1        0.2208
     26 O          22.0114   76.3521   -2.2555 O.co2   1  UNL1       -0.4371
     27 O          24.3245   75.1491   -2.5346 O.2     1  UNL1       -0.5170
     28 O          22.5394   74.3096   -0.8094 O.3     1  UNL1       -0.2858
     29 O          21.7336   72.0847   -0.6785 O.3     1  UNL1       -0.3258
     30 O          20.4069   73.4830    2.9733 O.3     1  UNL1       -0.3794
     31 O          22.6144   71.6485    2.8744 O.3     1  UNL1       -0.3794
     32 O          20.3144   75.2044    0.6478 O.3     1  UNL1       -0.3775
     33 C          21.3069   73.3793    1.8667 C.3     1  UNL1        0.1715
     34 C          21.7705   71.9252    1.7601 C.3     1  UNL1        0.1694
     35 C          20.5820   73.8073    0.5920 C.3     1  UNL1        0.1967
     36 C          22.5231   71.6786    0.4456 C.3     1  UNL1        0.1761
     37 C          21.3954   73.4729   -0.6597 C.3     1  UNL1        0.2704
     38 H          20.8611   73.2131    3.7859 H       1  UNL1        0.2105
     39 H          22.1273   71.8086    3.6980 H       1  UNL1        0.2105
     40 H          19.7987   75.4031    1.4444 H       1  UNL1        0.2106
     41 O          21.7536   69.4289    0.6816 O.3     1  UNL1       -0.3794
     42 C          22.8569   70.2018    0.2461 C.3     1  UNL1        0.1693
     43 H          21.9516   68.4867    0.5602 H       1  UNL1        0.2105
@<TRIPOS>UNITY_ATOM_ATTR
2 1
charge -1
26 1
charge -1
@<TRIPOS>BOND
     1    25    28    1
     2    25    24    1
     3    25    26    1
     4    25    27    2
     5     1     4    1
     6     1    24    1
     7     1     2    1
     8     1     3    2
     9     6    11    1
    10     6    12    1
    11    29    36    1
    12    29    37    1
    13     7     9    1
    14     7    13    1
    15     8    10    1
    16     8    14    1
    17    28    37    1
    18     4     5    1
    19    30    33    1
    20    30    38    1
    21    31    34    1
    22    31    39    1
    23    32    35    1
    24    32    40    1
    25    41    42    1
    26    41    43    1
    27    15    19    2
    28    16    22    2
    29    17    12    1
    30    17    19   ar
    31    17    20   ar
    32    18    19   ar
    33    18    22   ar
    34    18    23    1
    35     9    10    1
    36     9    11    1
    37    10    12    1
    38    11     5    1
    39    33    34    1
    40    33    35    1
    41    34    36    1
    42    35    37    1
    43    36    42    1
    44    20    21   ar
    45    21    22   ar
@<TRIPOS>MOLECULE
*****
 43 45 0 0 0
SMALL
GASTEIGER

@<TRIPOS>ATOM
      1 P          22.2654   73.3338   -5.2147 P.3     1  UNL1        0.2189
      2 O          22.8769   74.5873   -6.0345 O.co2   1  UNL1       -0.4371
      3 O          23.2847   72.4271   -4.5899 O.2     1  UNL1       -0.5170
      4 O          21.2561   72.6353   -6.2689 O.3     1  UNL1       -0.3112
      5 C          20.7781   73.4047   -7.3586 C.3     1  UNL1        0.1811
      6 O          20.0115   71.1671   -7.7820 O.3     1  UNL1       -0.3308
      7 O          18.4693   72.3296  -10.0757 O.3     1  UNL1       -0.3794
      8 O          16.5534   72.0414   -8.1566 O.3     1  UNL1       -0.3779
      9 C          18.7402   72.8925   -8.7931 C.3     1  UNL1        0.1713
     10 C          17.8898   72.2220   -7.7344 C.3     1  UNL1        0.1895
     11 C          20.1466   72.4731   -8.3840 C.3     1  UNL1        0.1764
     12 C          18.6211   70.9062   -7.5296 C.3     1  UNL1        0.2383
     13 H          17.5764   72.5841  -10.3583 H       1  UNL1        0.2105
     14 H          16.1312   72.9068   -8.2729 H       1  UNL1        0.2106
     15 O          16.2927   69.6487   -6.5421 O.2     1  UNL1       -0.2464
     16 O          18.1789   69.0104   -2.3857 O.2     1  UNL1       -0.2670
     17 N          18.4765   70.4014   -6.1933 N.ar    1  UNL1       -0.2551
     18 N          17.2339   69.3317   -4.4734 N.ar    1  UNL1       -0.2743
     19 C          17.2652   69.7878   -5.7974 C.ar    1  UNL1        0.3323
     20 C          19.5285   70.5169   -5.2913 C.ar    1  UNL1        0.0869
     21 C          19.4822   70.0779   -4.0317 C.ar    1  UNL1        0.0795
     22 C          18.2527   69.4245   -3.5385 C.ar    1  UNL1        0.2626
     23 H          16.3999   68.9011   -4.1752 H       1  UNL1        0.1734
     24 O          21.2609   74.0416   -4.1644 O.3     1  UNL1       -0.2703
     25 P          21.5150   74.6167   -2.6752 P.3     1  UNL1        0.2208
     26 O          20.1396   75.4001   -2.3404 O.co2   1  UNL1       -0.4371
     27 O          22.7533   75.4551   -2.5423 O.2     1  UNL1       -0.5170
     28 O          21.4841   73.3137   -1.7233 O.3     1  UNL1       -0.2858
     29 O          23.1053   73.4805   -0.0027 O.3     1  UNL1       -0.3258
     30 O          21.9276   69.5655    0.5777 O.3     1  UNL1       -0.3794
     31 O          21.1315   71.5800    2.4634 O.3     1  UNL1       -0.3794
     32 O          22.1655   70.6188   -2.1081 O.3     1  UNL1       -0.3775
     33 C          21.7480   70.9440    0.2416 C.3     1  UNL1        0.1715
     34 C          22.1231   71.7878    1.4615 C.3     1  UNL1        0.1694
     35 C          22.6437   71.2889   -0.9467 C.3     1  UNL1        0.1967
     36 C          22.2128   73.2763    1.0990 C.3     1  UNL1        0.1761
     37 C          22.7015   72.7979   -1.1913 C.3     1  UNL1        0.2704
     38 H          21.3613   69.3399    1.3312 H       1  UNL1        0.2105
     39 H          21.0846   70.6362    2.6828 H       1  UNL1        0.2105
     40 H          22.1339   69.6645   -1.9407 H       1  UNL1        0.2106
     41 O          21.6646   74.3840    3.1439 O.3     1  UNL1       -0.3794
     42 C          22.7383   74.1171    2.2605 C.3     1  UNL1        0.1693
     43 H          21.9844   74.9182    3.8883 H       1  UNL1        0.2105
@<TRIPOS>UNITY_ATOM_ATTR
2 1
charge -1
26 1
charge -1
@<TRIPOS>BOND
     1    25    28    1
     2    25    24    1
     3    25    26    1
     4    25    27    2
     5     1     4    1
     6     1    24    1
     7     1     2    1
     8     1     3    2
     9     6    11    1
    10     6    12    1
    11    29    36    1
    12    29    37    1
    13     7     9    1
    14     7    13    1
    15     8    10    1
    16     8    14    1
    17    28    37    1
    18     4     5    1
    19    30    33    1
    20    30    38    1
    21    31    34    1
    22    31    39    1
    23    32    35    1
    24    32    40    1
    25    41    42    1
    26    41    43    1
    27    15    19    2
    28    16    22    2
    29    17    12    1
    30    17    19   ar
    31    17    20   ar
    32    18    19   ar
    33    18    22   ar
    34    18    23    1
    35     9    10    1
    36     9    11    1
    37    10    12    1
    38    11     5    1
    39    33    34    1
    40    33    35    1
    41    34    36    1
    42    35    37    1
    43    36    42    1
    44    20    21   ar
    45    21    22   ar
@<TRIPOS>MOLECULE
*****
 43 45 0 0 0
SMALL
GASTEIGER

@<TRIPOS>ATOM
      1 P          21.8247   70.9352    0.0195 P.3     1  UNL1        0.2189
      2 O          21.7570   69.3921    0.5009 O.co2   1  UNL1       -0.4371
      3 O          23.2084   71.4660   -0.2146 O.2     1  UNL1       -0.5170
      4 O          20.9466   71.7257    1.1249 O.3     1  UNL1       -0.3112
      5 C          21.5887   72.7022    1.9262 C.3     1  UNL1        0.1811
      6 O          22.2352   72.7420    4.2401 O.3     1  UNL1       -0.3308
      7 O          19.3250   73.1242    4.8530 O.3     1  UNL1       -0.3794
      8 O          20.3201   75.6517    5.0939 O.3     1  UNL1       -0.3779
      9 C          20.0912   73.6309    3.7615 C.3     1  UNL1        0.1713
     10 C          20.9891   74.7579    4.2277 C.3     1  UNL1        0.1895
     11 C          21.1022   72.5632    3.3622 C.3     1  UNL1        0.1764
     12 C          22.1102   74.0017    4.9201 C.3     1  UNL1        0.2383
     13 H          18.6721   73.7886    5.1255 H       1  UNL1        0.2105
     14 H          19.6164   76.1083    4.6070 H       1  UNL1        0.2106
     15 O          23.0657   75.7763    6.8990 O.2     1  UNL1       -0.2464
     16 O          26.9368   76.6112    4.5414 O.2     1  UNL1       -0.2670
     17 N          23.3647   74.6963    4.8493 N.ar    1  UNL1       -0.2551
     18 N          24.9925   76.1904    5.7236 N.ar    1  UNL1       -0.2743
     19 C          23.7506   75.5659    5.8958 C.ar    1  UNL1        0.3323
     20 C          24.1979   74.5119    3.7512 C.ar    1  UNL1        0.0869
     21 C          25.3785   75.1159    3.6014 C.ar    1  UNL1        0.0795
     22 C          25.8559   76.0405    4.6499 C.ar    1  UNL1        0.2626
     23 H          25.2819   76.8010    6.4399 H       1  UNL1        0.1734
     24 O          20.8684   70.9516   -1.2836 O.3     1  UNL1       -0.2703
     25 P          21.1983   71.2437   -2.8389 P.3     1  UNL1        0.2208
     26 O          22.2774   70.0971   -3.2109 O.co2   1  UNL1       -0.4371
     27 O          21.6622   72.6442   -3.1170 O.2     1  UNL1       -0.5170
     28 O          19.8580   70.8138   -3.6286 O.3     1  UNL1       -0.2858
     29 O          19.5525   72.5656   -5.1952 O.3     1  UNL1       -0.3258
     30 O          16.3936   70.1423   -6.2907 O.3     1  UNL1       -0.3794
     31 O          18.6973   70.3264   -7.9958 O.3     1  UNL1       -0.3794
     32 O          17.0793   70.4449   -3.4947 O.3     1  UNL1       -0.3775
     33 C          17.7126   70.4296   -5.8185 C.3     1  UNL1        0.1715
     34 C          18.4518   71.2113   -6.9064 C.3     1  UNL1        0.1694
     35 C          17.6152   71.2540   -4.5362 C.3     1  UNL1        0.1967
     36 C          19.7726   71.7849   -6.3758 C.3     1  UNL1        0.1761
     37 C          18.9757   71.8181   -4.1227 C.3     1  UNL1        0.2704
     38 H          16.4484   69.6187   -7.1046 H       1  UNL1        0.2105
     39 H          17.8553   69.9708   -8.3212 H       1  UNL1        0.2105
     40 H          16.2181   70.0941   -3.7686 H       1  UNL1        0.2106
     41 O          21.2824   71.9085   -8.2236 O.3     1  UNL1       -0.3794
     42 C          20.4497   72.6987   -7.3950 C.3     1  UNL1        0.1693
     43 H          21.7196   72.4768   -8.8775 H       1  UNL1        0.2105
@<TRIPOS>UNITY_ATOM_ATTR
2 1
charge -1
26 1
charge -1
@<TRIPOS>BOND
     1    25    28    1
     2    25    24    1
     3    25    26    1
     4    25    27    2
     5     1     4    1
     6     1    24    1
     7     1     2    1
     8     1     3    2
     9     6    11    1
    10     6    12    1
    11    29    36    1
    12    29    37    1
    13     7     9    1
    14     7    13    1
    15     8    10    1
    16     8    14    1
    17    28    37    1
    18     4     5    1
    19    30    33    1
    20    30    38    1
    21    31    34    1
    22    31    39    1
    23    32    35    1
    24    32    40    1
    25    41    42    1
    26    41    43    1
    27    15    19    2
    28    16    22    2
    29    17    12    1
    30    17    19   ar
    31    17    20   ar
    32    18    19   ar
    33    18    22   ar
    34    18    23    1
    35     9    10    1
    36     9    11    1
    37    10    12    1
    38    11     5    1
    39    33    34    1
    40    33    35    1
    41    34    36    1
    42    35    37    1
    43    36    42    1
    44    20    21   ar
    45    21    22   ar
@<TRIPOS>MOLECULE
*****
 43 45 0 0 0
SMALL
GASTEIGER

@<TRIPOS>ATOM
      1 P          23.0189   72.5636   -3.6331 P.3     1  UNL1        0.2189
      2 O          23.2367   71.0426   -3.1266 O.co2   1  UNL1       -0.4371
      3 O          24.2751   73.2912   -4.0128 O.2     1  UNL1       -0.5170
      4 O          22.1418   73.2433   -2.4556 O.3     1  UNL1       -0.3112
      5 C          22.3338   72.7954   -1.1250 C.3     1  UNL1        0.1811
      6 O          21.3096   72.7441    1.0480 O.3     1  UNL1       -0.3308
      7 O          19.0547   74.2892   -0.1844 O.3     1  UNL1       -0.3794
      8 O          20.4592   76.2275    1.1221 O.3     1  UNL1       -0.3779
      9 C          20.4544   74.3710   -0.4478 C.3     1  UNL1        0.1713
     10 C          21.1624   75.0817    0.6868 C.3     1  UNL1        0.1895
     11 C          21.0328   72.9647   -0.3524 C.3     1  UNL1        0.1764
     12 C          21.2255   73.9963    1.7479 C.3     1  UNL1        0.2383
     13 H          18.6631   75.1755   -0.2400 H       1  UNL1        0.2105
     14 H          20.4468   76.8885    0.4124 H       1  UNL1        0.2106
     15 O          21.3509   73.0611    4.4102 O.2     1  UNL1       -0.2464
     16 O          25.6746   74.5703    4.9300 O.2     1  UNL1       -0.2670
     17 N          22.3718   74.1311    2.6018 N.ar    1  UNL1       -0.2551
     18 N          23.5037   73.8132    4.6668 N.ar    1  UNL1       -0.2743
     19 C          22.3313   73.6278    3.9230 C.ar    1  UNL1        0.3323
     20 C          23.5197   74.7564    2.1272 C.ar    1  UNL1        0.0869
     21 C          24.6290   74.9263    2.8497 C.ar    1  UNL1        0.0795
     22 C          24.6695   74.4292    4.2401 C.ar    1  UNL1        0.2626
     23 H          23.4986   73.4709    5.5901 H       1  UNL1        0.1734
     24 O          21.9489   72.3973   -4.8333 O.3     1  UNL1       -0.2703
     25 P          21.6366   73.3325   -6.1142 P.3     1  UNL1        0.2208
     26 O          22.5108   72.6513   -7.2930 O.co2   1  UNL1       -0.4371
     27 O          21.9211   74.7903   -5.8958 O.2     1  UNL1       -0.5170
     28 O          20.1047   73.0003   -6.4988 O.3     1  UNL1       -0.2858
     29 O          19.3947   70.8293   -5.8669 O.3     1  UNL1       -0.3258
     30 O          16.2773   71.8375   -8.3801 O.3     1  UNL1       -0.3794
     31 O          15.8404   71.7515   -5.5429 O.3     1  UNL1       -0.3794
     32 O          18.9812   72.6302   -9.0436 O.3     1  UNL1       -0.3775
     33 C          17.2993   72.0804   -7.4095 C.3     1  UNL1        0.1715
     34 C          17.0028   71.2245   -6.1765 C.3     1  UNL1        0.1694
     35 C          18.6547   71.7093   -8.0083 C.3     1  UNL1        0.1967
     36 C          18.1891   71.2258   -5.2029 C.3     1  UNL1        0.1761
     37 C          19.7558   71.6929   -6.9465 C.3     1  UNL1        0.2704
     38 H          15.4142   72.0716   -8.0064 H       1  UNL1        0.2105
     39 H          15.0989   71.7455   -6.1685 H       1  UNL1        0.2105
     40 H          18.2767   72.6310   -9.7095 H       1  UNL1        0.2106
     41 O          16.8609   69.4373   -4.3391 O.3     1  UNL1       -0.3794
     42 C          17.9783   70.2547   -4.0433 C.3     1  UNL1        0.1693
     43 H          16.7150   68.8140   -3.6098 H       1  UNL1        0.2105
@<TRIPOS>UNITY_ATOM_ATTR
2 1
charge -1
26 1
charge -1
@<TRIPOS>BOND
     1    25    28    1
     2    25    24    1
     3    25    26    1
     4    25    27    2
     5     1     4    1
     6     1    24    1
     7     1     2    1
     8     1     3    2
     9     6    11    1
    10     6    12    1
    11    29    36    1
    12    29    37    1
    13     7     9    1
    14     7    13    1
    15     8    10    1
    16     8    14    1
    17    28    37    1
    18     4     5    1
    19    30    33    1
    20    30    38    1
    21    31    34    1
    22    31    39    1
    23    32    35    1
    24    32    40    1
    25    41    42    1
    26    41    43    1
    27    15    19    2
    28    16    22    2
    29    17    12    1
    30    17    19   ar
    31    17    20   ar
    32    18    19   ar
    33    18    22   ar
    34    18    23    1
    35     9    10    1
    36     9    11    1
    37    10    12    1
    38    11     5    1
    39    33    34    1
    40    33    35    1
    41    34    36    1
    42    35    37    1
    43    36    42    1
    44    20    21   ar
    45    21    22   ar
@<TRIPOS>MOLECULE
*****
 43 45 0 0 0
SMALL
GASTEIGER

@<TRIPOS>ATOM
      1 P          22.4834   73.0529   -3.9275 P.3     1  UNL1        0.2189
      2 O          21.7185   71.6283   -3.9827 O.co2   1  UNL1       -0.4371
      3 O          23.9667   72.9845   -4.1428 O.2     1  UNL1       -0.5170
      4 O          22.0064   73.6956   -2.5213 O.3     1  UNL1       -0.3112
      5 C          21.5600   75.0404   -2.5095 C.3     1  UNL1        0.1811
      6 O          20.0641   73.8504   -1.0534 O.3     1  UNL1       -0.3308
      7 O          19.0559   76.5415   -0.1976 O.3     1  UNL1       -0.3794
      8 O          20.7237   75.8537    1.8474 O.3     1  UNL1       -0.3779
      9 C          20.3816   76.1426   -0.5423 C.3     1  UNL1        0.1713
     10 C          20.9862   75.3108    0.5695 C.3     1  UNL1        0.1895
     11 C          20.2869   75.1329   -1.6794 C.3     1  UNL1        0.1764
     12 C          20.3146   73.9647    0.3569 C.3     1  UNL1        0.2383
     13 H          19.0907   77.1867    0.5266 H       1  UNL1        0.2105
     14 H          21.1724   76.7093    1.9338 H       1  UNL1        0.2106
     15 O          20.7633   73.2379    3.0492 O.2     1  UNL1       -0.2464
     16 O          23.5088   69.7397    1.8386 O.2     1  UNL1       -0.2670
     17 N          21.1420   72.8679    0.7740 N.ar    1  UNL1       -0.2551
     18 N          22.1299   71.4965    2.4442 N.ar    1  UNL1       -0.2743
     19 C          21.3022   72.5879    2.1510 C.ar    1  UNL1        0.3323
     20 C          21.7839   72.0831   -0.1778 C.ar    1  UNL1        0.0869
     21 C          22.5709   71.0467    0.1182 C.ar    1  UNL1        0.0795
     22 C          22.7907   70.6870    1.5340 C.ar    1  UNL1        0.2626
     23 H          22.2565   71.2829    3.3972 H       1  UNL1        0.1734
     24 O          21.6849   73.9367   -5.0203 O.3     1  UNL1       -0.2703
     25 P          21.5726   73.7908   -6.6263 P.3     1  UNL1        0.2208
     26 O          22.7871   72.7871   -6.9936 O.co2   1  UNL1       -0.4371
     27 O          21.6030   75.0967   -7.3664 O.2     1  UNL1       -0.5170
     28 O          20.2361   72.9179   -6.8647 O.3     1  UNL1       -0.2858
     29 O          19.4428   70.7720   -6.2464 O.3     1  UNL1       -0.3258
     30 O          18.5267   70.6796  -10.2717 O.3     1  UNL1       -0.3794
     31 O          16.4159   70.9485   -8.3430 O.3     1  UNL1       -0.3794
     32 O          20.9849   71.9201   -9.3784 O.3     1  UNL1       -0.3775
     33 C          18.6945   71.2856   -8.9872 C.3     1  UNL1        0.1715
     34 C          17.7524   70.5906   -8.0023 C.3     1  UNL1        0.1694
     35 C          20.1479   71.1249   -8.5455 C.3     1  UNL1        0.1967
     36 C          18.0629   70.9996   -6.5561 C.3     1  UNL1        0.1761
     37 C          20.3384   71.5124   -7.0780 C.3     1  UNL1        0.2704
     38 H          17.6061   70.7785  -10.5582 H       1  UNL1        0.2105
     39 H          16.2328   70.6853   -9.2586 H       1  UNL1        0.2105
     40 H          20.8553   71.6649  -10.3046 H       1  UNL1        0.2106
     41 O          18.0989   69.7806   -4.5014 O.3     1  UNL1       -0.3794
     42 C          17.2415   70.2004   -5.5468 C.3     1  UNL1        0.1693
     43 H          17.5897   69.2710   -3.8513 H       1  UNL1        0.2105
@<TRIPOS>UNITY_ATOM_ATTR
2 1
charge -1
26 1
charge -1
@<TRIPOS>BOND
     1    25    28    1
     2    25    24    1
     3    25    26    1
     4    25    27    2
     5     1     4    1
     6     1    24    1
     7     1     2    1
     8     1     3    2
     9     6    11    1
    10     6    12    1
    11    29    36    1
    12    29    37    1
    13     7     9    1
    14     7    13    1
    15     8    10    1
    16     8    14    1
    17    28    37    1
    18     4     5    1
    19    30    33    1
    20    30    38    1
    21    31    34    1
    22    31    39    1
    23    32    35    1
    24    32    40    1
    25    41    42    1
    26    41    43    1
    27    15    19    2
    28    16    22    2
    29    17    12    1
    30    17    19   ar
    31    17    20   ar
    32    18    19   ar
    33    18    22   ar
    34    18    23    1
    35     9    10    1
    36     9    11    1
    37    10    12    1
    38    11     5    1
    39    33    34    1
    40    33    35    1
    41    34    36    1
    42    35    37    1
    43    36    42    1
    44    20    21   ar
    45    21    22   ar
@<TRIPOS>MOLECULE
*****
 43 45 0 0 0
SMALL
GASTEIGER

@<TRIPOS>ATOM
      1 P          23.3100   72.9166   -3.5259 P.3     1  UNL1        0.2189
      2 O          23.5644   71.3671   -3.1364 O.co2   1  UNL1       -0.4371
      3 O          24.5364   73.6756   -3.9399 O.2     1  UNL1       -0.5170
      4 O          22.5125   73.5119   -2.2502 O.3     1  UNL1       -0.3112
      5 C          23.1278   73.4424   -0.9756 C.3     1  UNL1        0.1811
      6 O          20.8267   72.8453   -0.6261 O.3     1  UNL1       -0.3308
      7 O          21.7326   71.6143    1.9536 O.3     1  UNL1       -0.3794
      8 O          21.4808   69.4475    0.3172 O.3     1  UNL1       -0.3779
      9 C          22.4016   71.6658    0.6946 C.3     1  UNL1        0.1713
     10 C          21.7646   70.6966   -0.2793 C.3     1  UNL1        0.1895
     11 C          22.0907   73.0122    0.0527 C.3     1  UNL1        0.1764
     12 C          20.5092   71.4454   -0.6934 C.3     1  UNL1        0.2383
     13 H          21.9165   70.7635    2.3827 H       1  UNL1        0.2105
     14 H          22.3110   69.0102    0.5628 H       1  UNL1        0.2106
     15 O          21.2805   69.1119   -2.0854 O.2     1  UNL1       -0.2464
     16 O          18.8647   70.3204   -5.8197 O.2     1  UNL1       -0.2670
     17 N          20.0962   71.1247   -2.0305 N.ar    1  UNL1       -0.2551
     18 N          20.0768   69.7155   -3.9436 N.ar    1  UNL1       -0.2743
     19 C          20.5407   69.9279   -2.6391 C.ar    1  UNL1        0.3323
     20 C          19.2592   71.9921   -2.7241 C.ar    1  UNL1        0.0869
     21 C          18.8269   71.7756   -3.9681 C.ar    1  UNL1        0.0795
     22 C          19.2451   70.5481   -4.6755 C.ar    1  UNL1        0.2626
     23 H          20.3739   68.8883   -4.3878 H       1  UNL1        0.1734
     24 O          22.1623   72.8225   -4.6602 O.3     1  UNL1       -0.2703
     25 P          21.9098   73.7051   -5.9907 P.3     1  UNL1        0.2208
     26 O          22.6687   72.8624   -7.1446 O.co2   1  UNL1       -0.4371
     27 O          22.3539   75.1345   -5.8744 O.2     1  UNL1       -0.5170
     28 O          20.3398   73.5166   -6.3142 O.3     1  UNL1       -0.2858
     29 O          19.9499   73.4512   -8.6509 O.3     1  UNL1       -0.3258
     30 O          16.0404   73.6360   -7.3345 O.3     1  UNL1       -0.3794
     31 O          17.0579   71.1775   -8.4153 O.3     1  UNL1       -0.3794
     32 O          18.0931   75.1651   -5.9824 O.3     1  UNL1       -0.3775
     33 C          17.4169   73.2517   -7.2797 C.3     1  UNL1        0.1715
     34 C          17.7344   72.4264   -8.5283 C.3     1  UNL1        0.1694
     35 C          18.2844   74.5080   -7.2307 C.3     1  UNL1        0.1967
     36 C          19.2456   72.2041   -8.6759 C.3     1  UNL1        0.1761
     37 C          19.7645   74.1808   -7.4363 C.3     1  UNL1        0.2704
     38 H          15.4841   72.8429   -7.3653 H       1  UNL1        0.2105
     39 H          16.1046   71.3320   -8.3222 H       1  UNL1        0.2105
     40 H          17.1523   75.3671   -5.8643 H       1  UNL1        0.2106
     41 O          18.6546   70.4902  -10.2322 O.3     1  UNL1       -0.3794
     42 C          19.5969   71.5198   -9.9952 C.3     1  UNL1        0.1693
     43 H          18.8655   70.0460  -11.0688 H       1  UNL1        0.2105
@<TRIPOS>UNITY_ATOM_ATTR
2 1
charge -1
26 1
charge -1
@<TRIPOS>BOND
     1    25    28    1
     2    25    24    1
     3    25    26    1
     4    25    27    2
     5     1     4    1
     6     1    24    1
     7     1     2    1
     8     1     3    2
     9     6    11    1
    10     6    12    1
    11    29    36    1
    12    29    37    1
    13     7     9    1
    14     7    13    1
    15     8    10    1
    16     8    14    1
    17    28    37    1
    18     4     5    1
    19    30    33    1
    20    30    38    1
    21    31    34    1
    22    31    39    1
    23    32    35    1
    24    32    40    1
    25    41    42    1
    26    41    43    1
    27    15    19    2
    28    16    22    2
    29    17    12    1
    30    17    19   ar
    31    17    20   ar
    32    18    19   ar
    33    18    22   ar
    34    18    23    1
    35     9    10    1
    36     9    11    1
    37    10    12    1
    38    11     5    1
    39    33    34    1
    40    33    35    1
    41    34    36    1
    42    35    37    1
    43    36    42    1
    44    20    21   ar
    45    21    22   ar
@<TRIPOS>MOLECULE
*****
 43 45 0 0 0
SMALL
GASTEIGER

@<TRIPOS>ATOM
      1 P          20.9112   75.2856   -7.3638 P.3     1  UNL1        0.2189
      2 O          19.3354   75.6096   -7.5349 O.co2   1  UNL1       -0.4371
      3 O          21.8197   76.4731   -7.4897 O.2     1  UNL1       -0.5170
      4 O          21.1767   74.0834   -8.4136 O.3     1  UNL1       -0.3112
      5 C          21.1600   72.7504   -7.9333 C.3     1  UNL1        0.1811
      6 O          19.9232   70.6999   -8.1322 O.3     1  UNL1       -0.3308
      7 O          18.4838   72.0079  -10.4143 O.3     1  UNL1       -0.3794
      8 O          16.6984   72.2517   -8.3675 O.3     1  UNL1       -0.3779
      9 C          18.9590   72.5837   -9.1986 C.3     1  UNL1        0.1713
     10 C          18.0712   72.1759   -8.0414 C.3     1  UNL1        0.1895
     11 C          20.2767   71.9069   -8.8425 C.3     1  UNL1        0.1764
     12 C          18.5317   70.7524   -7.7774 C.3     1  UNL1        0.2383
     13 H          17.6430   72.4246  -10.6622 H       1  UNL1        0.2105
     14 H          16.4542   73.1769   -8.5262 H       1  UNL1        0.2106
     15 O          16.2109   69.5755   -6.6788 O.2     1  UNL1       -0.2464
     16 O          18.0904   69.3545   -2.4764 O.2     1  UNL1       -0.2670
     17 N          18.3874   70.3768   -6.3992 N.ar    1  UNL1       -0.2551
     18 N          17.1487   69.4663   -4.5873 N.ar    1  UNL1       -0.2743
     19 C          17.1801   69.7936   -5.9489 C.ar    1  UNL1        0.3323
     20 C          19.4358   70.5871   -5.5102 C.ar    1  UNL1        0.0869
     21 C          19.3895   70.2705   -4.2145 C.ar    1  UNL1        0.0795
     22 C          18.1640   69.6569   -3.6634 C.ar    1  UNL1        0.2626
     23 H          16.3175   69.0591   -4.2509 H       1  UNL1        0.1734
     24 O          20.9752   74.5384   -5.9319 O.3     1  UNL1       -0.2703
     25 P          20.8467   75.1146   -4.4271 P.3     1  UNL1        0.2208
     26 O          19.2696   75.4491   -4.2914 O.co2   1  UNL1       -0.4371
     27 O          21.7533   76.2745   -4.1328 O.2     1  UNL1       -0.5170
     28 O          21.0742   73.8299   -3.4769 O.3     1  UNL1       -0.2858
     29 O          21.9610   73.4864   -1.3061 O.3     1  UNL1       -0.3258
     30 O          23.8046   70.3595   -3.2745 O.3     1  UNL1       -0.3794
     31 O          21.6689   69.8139   -1.4335 O.3     1  UNL1       -0.3794
     32 O          23.4725   72.9084   -4.6057 O.3     1  UNL1       -0.3775
     33 C          22.7443   71.2764   -2.9909 C.3     1  UNL1        0.1715
     34 C          22.3162   71.0792   -1.5353 C.3     1  UNL1        0.1694
     35 C          23.2440   72.7023   -3.2158 C.3     1  UNL1        0.1967
     36 C          21.3730   72.2002   -1.0785 C.3     1  UNL1        0.1761
     37 C          22.2535   73.7387   -2.6819 C.3     1  UNL1        0.2704
     38 H          23.4937   69.4522   -3.1341 H       1  UNL1        0.2105
     39 H          22.2750   69.1148   -1.7254 H       1  UNL1        0.2105
     40 H          24.1013   72.2464   -4.9315 H       1  UNL1        0.2106
     41 O          21.7339   70.9873    0.9482 O.3     1  UNL1       -0.3794
     42 C          21.0590   72.1111    0.4133 C.3     1  UNL1        0.1693
     43 H          21.5435   70.9181    1.8973 H       1  UNL1        0.2105
@<TRIPOS>UNITY_ATOM_ATTR
2 1
charge -1
26 1
charge -1
@<TRIPOS>BOND
     1    25    28    1
     2    25    24    1
     3    25    26    1
     4    25    27    2
     5     1     4    1
     6     1    24    1
     7     1     2    1
     8     1     3    2
     9     6    11    1
    10     6    12    1
    11    29    36    1
    12    29    37    1
    13     7     9    1
    14     7    13    1
    15     8    10    1
    16     8    14    1
    17    28    37    1
    18     4     5    1
    19    30    33    1
    20    30    38    1
    21    31    34    1
    22    31    39    1
    23    32    35    1
    24    32    40    1
    25    41    42    1
    26    41    43    1
    27    15    19    2
    28    16    22    2
    29    17    12    1
    30    17    19   ar
    31    17    20   ar
    32    18    19   ar
    33    18    22   ar
    34    18    23    1
    35     9    10    1
    36     9    11    1
    37    10    12    1
    38    11     5    1
    39    33    34    1
    40    33    35    1
    41    34    36    1
    42    35    37    1
    43    36    42    1
    44    20    21   ar
    45    21    22   ar
@<TRIPOS>MOLECULE
*****
 43 45 0 0 0
SMALL
GASTEIGER

@<TRIPOS>ATOM
      1 P          22.4321   73.3568   -3.9619 P.3     1  UNL1        0.2189
      2 O          23.7710   72.4597   -4.1031 O.co2   1  UNL1       -0.4371
      3 O          22.2020   73.9417   -2.5994 O.2     1  UNL1       -0.5170
      4 O          21.2583   72.3934   -4.5203 O.3     1  UNL1       -0.3112
      5 C          20.6583   71.4713   -3.6272 C.3     1  UNL1        0.1811
      6 O          18.6942   72.2591   -4.7656 O.3     1  UNL1       -0.3308
      7 O          17.1342   71.1013   -2.4816 O.3     1  UNL1       -0.3794
      8 O          16.8382   69.2094   -4.4232 O.3     1  UNL1       -0.3779
      9 C          18.3216   70.6121   -3.1029 C.3     1  UNL1        0.1713
     10 C          17.9989   70.0146   -4.4566 C.3     1  UNL1        0.1895
     11 C          19.1814   71.8116   -3.4815 C.3     1  UNL1        0.1764
     12 C          17.8250   71.2557   -5.3154 C.3     1  UNL1        0.2383
     13 H          16.5691   70.3532   -2.2306 H       1  UNL1        0.2105
     14 H          16.9990   68.4330   -3.8645 H       1  UNL1        0.2106
     15 O          16.0505   70.2961   -7.2924 O.2     1  UNL1       -0.2464
     16 O          19.3157   70.4176  -10.5427 O.2     1  UNL1       -0.2670
     17 N          18.1847   71.0277   -6.6866 N.ar    1  UNL1       -0.2551
     18 N          17.6777   70.3576   -8.9093 N.ar    1  UNL1       -0.2743
     19 C          17.2186   70.5433   -7.5990 C.ar    1  UNL1        0.3323
     20 C          19.4828   71.2842   -7.1143 C.ar    1  UNL1        0.0869
     21 C          19.9050   71.1006   -8.3670 C.ar    1  UNL1        0.0795
     22 C          18.9581   70.5969   -9.3827 C.ar    1  UNL1        0.2626
     23 H          17.0222   70.0204   -9.5623 H       1  UNL1        0.1734
     24 O          22.5993   74.4478   -5.1429 O.3     1  UNL1       -0.2703
     25 P          22.4336   74.3117   -6.7450 P.3     1  UNL1        0.2208
     26 O          22.6745   72.7340   -7.0102 O.co2   1  UNL1       -0.4371
     27 O          23.3331   75.2169   -7.5358 O.2     1  UNL1       -0.5170
     28 O          20.8577   74.5342   -7.0131 O.3     1  UNL1       -0.2858
     29 O          19.3329   74.6632   -8.8228 O.3     1  UNL1       -0.3258
     30 O          18.4179   78.2195   -6.9343 O.3     1  UNL1       -0.3794
     31 O          16.5696   76.0255   -6.7987 O.3     1  UNL1       -0.3794
     32 O          21.1668   77.3227   -7.0709 O.3     1  UNL1       -0.3775
     33 C          18.8069   76.8451   -7.0067 C.3     1  UNL1        0.1715
     34 C          17.6821   76.0635   -7.6882 C.3     1  UNL1        0.1694
     35 C          20.1016   76.7345   -7.8097 C.3     1  UNL1        0.1967
     36 C          18.1322   74.6397   -8.0420 C.3     1  UNL1        0.1761
     37 C          20.4324   75.2803   -8.1505 C.3     1  UNL1        0.2704
     38 H          17.5967   78.2967   -6.4252 H       1  UNL1        0.2105
     39 H          16.2955   76.9308   -6.5829 H       1  UNL1        0.2105
     40 H          20.9454   78.2431   -6.8617 H       1  UNL1        0.2106
     41 O          17.6547   73.5329  -10.1049 O.3     1  UNL1       -0.3794
     42 C          17.0813   73.8948   -8.8621 C.3     1  UNL1        0.1693
     43 H          16.9972   73.0576  -10.6375 H       1  UNL1        0.2105
@<TRIPOS>UNITY_ATOM_ATTR
2 1
charge -1
26 1
charge -1
@<TRIPOS>BOND
     1    25    28    1
     2    25    24    1
     3    25    26    1
     4    25    27    2
     5     1     4    1
     6     1    24    1
     7     1     2    1
     8     1     3    2
     9     6    11    1
    10     6    12    1
    11    29    36    1
    12    29    37    1
    13     7     9    1
    14     7    13    1
    15     8    10    1
    16     8    14    1
    17    28    37    1
    18     4     5    1
    19    30    33    1
    20    30    38    1
    21    31    34    1
    22    31    39    1
    23    32    35    1
    24    32    40    1
    25    41    42    1
    26    41    43    1
    27    15    19    2
    28    16    22    2
    29    17    12    1
    30    17    19   ar
    31    17    20   ar
    32    18    19   ar
    33    18    22   ar
    34    18    23    1
    35     9    10    1
    36     9    11    1
    37    10    12    1
    38    11     5    1
    39    33    34    1
    40    33    35    1
    41    34    36    1
    42    35    37    1
    43    36    42    1
    44    20    21   ar
    45    21    22   ar
@<TRIPOS>MOLECULE
*****
 43 45 0 0 0
SMALL
GASTEIGER

@<TRIPOS>ATOM
      1 P          22.3755   72.8705   -4.5024 P.3     1  UNL1        0.2189
      2 O          22.7671   73.8973   -5.6897 O.co2   1  UNL1       -0.4371
      3 O          23.5376   72.1723   -3.8593 O.2     1  UNL1       -0.5170
      4 O          21.2611   71.9081   -5.1730 O.3     1  UNL1       -0.3112
      5 C          20.5646   72.3741   -6.3155 C.3     1  UNL1        0.1811
      6 O          18.5127   71.3109   -6.9737 O.3     1  UNL1       -0.3308
      7 O          20.1583   69.7897   -8.9659 O.3     1  UNL1       -0.3794
      8 O          19.0110   71.7301  -10.5006 O.3     1  UNL1       -0.3779
      9 C          20.2970   71.1390   -8.5237 C.3     1  UNL1        0.1713
     10 C          19.2121   72.0049   -9.1292 C.3     1  UNL1        0.1895
     11 C          19.9500   71.1848   -7.0408 C.3     1  UNL1        0.1764
     12 C          18.0074   71.6421   -8.2775 C.3     1  UNL1        0.2383
     13 H          20.3751   69.7353   -9.9104 H       1  UNL1        0.2105
     14 H          19.8048   71.9779  -10.9999 H       1  UNL1        0.2106
     15 O          15.8650   71.7072   -6.4380 O.2     1  UNL1       -0.2464
     16 O          14.4985   75.8601   -7.8965 O.2     1  UNL1       -0.2670
     17 N          17.0764   72.7282   -8.1547 N.ar    1  UNL1       -0.2551
     18 N          15.1864   73.7751   -7.1656 N.ar    1  UNL1       -0.2743
     19 C          16.0355   72.6615   -7.1995 C.ar    1  UNL1        0.3323
     20 C          17.2009   73.8438   -8.9756 C.ar    1  UNL1        0.0869
     21 C          16.3822   74.8969   -8.9316 C.ar    1  UNL1        0.0795
     22 C          15.2684   74.9068   -7.9614 C.ar    1  UNL1        0.2626
     23 H          14.4536   73.7507   -6.5082 H       1  UNL1        0.1734
     24 O          21.5044   73.7907   -3.4987 O.3     1  UNL1       -0.2703
     25 P          21.9578   74.7921   -2.3136 P.3     1  UNL1        0.2208
     26 O          20.7734   75.8939   -2.2854 O.co2   1  UNL1       -0.4371
     27 O          23.3341   75.3667   -2.4863 O.2     1  UNL1       -0.5170
     28 O          21.7541   73.9398   -0.9582 O.3     1  UNL1       -0.2858
     29 O          23.1818   73.8239    0.9298 O.3     1  UNL1       -0.3258
     30 O          21.7070   69.9673    0.9800 O.3     1  UNL1       -0.3794
     31 O          20.8331   71.8456    2.9691 O.3     1  UNL1       -0.3794
     32 O          22.3058   71.2515   -1.5442 O.3     1  UNL1       -0.3775
     33 C          21.6514   71.3809    0.7702 C.3     1  UNL1        0.1715
     34 C          21.9405   72.0753    2.1025 C.3     1  UNL1        0.1694
     35 C          22.6929   71.7714   -0.2768 C.3     1  UNL1        0.1967
     36 C          22.1619   73.5811    1.9058 C.3     1  UNL1        0.1761
     37 C          22.8708   73.2886   -0.3580 C.3     1  UNL1        0.2704
     38 H          21.0478   69.7127    1.6434 H       1  UNL1        0.2105
     39 H          20.7038   70.8910    3.0845 H       1  UNL1        0.2105
     40 H          22.1968   70.2903   -1.4796 H       1  UNL1        0.2106
     41 O          23.0579   73.2753    4.0996 O.3     1  UNL1       -0.3794
     42 C          22.6064   74.2671    3.1957 C.3     1  UNL1        0.1693
     43 H          23.3443   73.6974    4.9251 H       1  UNL1        0.2105
@<TRIPOS>UNITY_ATOM_ATTR
2 1
charge -1
26 1
charge -1
@<TRIPOS>BOND
     1    25    28    1
     2    25    24    1
     3    25    26    1
     4    25    27    2
     5     1     4    1
     6     1    24    1
     7     1     2    1
     8     1     3    2
     9     6    11    1
    10     6    12    1
    11    29    36    1
    12    29    37    1
    13     7     9    1
    14     7    13    1
    15     8    10    1
    16     8    14    1
    17    28    37    1
    18     4     5    1
    19    30    33    1
    20    30    38    1
    21    31    34    1
    22    31    39    1
    23    32    35    1
    24    32    40    1
    25    41    42    1
    26    41    43    1
    27    15    19    2
    28    16    22    2
    29    17    12    1
    30    17    19   ar
    31    17    20   ar
    32    18    19   ar
    33    18    22   ar
    34    18    23    1
    35     9    10    1
    36     9    11    1
    37    10    12    1
    38    11     5    1
    39    33    34    1
    40    33    35    1
    41    34    36    1
    42    35    37    1
    43    36    42    1
    44    20    21   ar
    45    21    22   ar
@<TRIPOS>MOLECULE
*****
 43 45 0 0 0
SMALL
GASTEIGER

@<TRIPOS>ATOM
      1 P          20.7563   74.0951   -4.8275 P.3     1  UNL1        0.2189
      2 O          21.0408   75.4264   -3.9534 O.co2   1  UNL1       -0.4371
      3 O          21.2639   74.1430   -6.2387 O.2     1  UNL1       -0.5170
      4 O          19.1651   73.8537   -4.6610 O.3     1  UNL1       -0.3112
      5 C          18.6744   73.4240   -3.4031 C.3     1  UNL1        0.1811
      6 O          16.8910   73.0365   -4.9661 O.3     1  UNL1       -0.3308
      7 O          15.6340   71.3520   -2.8276 O.3     1  UNL1       -0.3794
      8 O          16.7518   69.4868   -4.4732 O.3     1  UNL1       -0.3779
      9 C          17.0131   71.5130   -3.1551 C.3     1  UNL1        0.1713
     10 C          17.3399   70.7711   -4.4343 C.3     1  UNL1        0.1895
     11 C          17.2319   72.9642   -3.5644 C.3     1  UNL1        0.1764
     12 C          16.7767   71.7044   -5.4925 C.3     1  UNL1        0.2383
     13 H          15.4699   70.4329   -2.5627 H       1  UNL1        0.2105
     14 H          17.1431   68.9307   -3.7815 H       1  UNL1        0.2106
     15 O          15.7933   72.6278   -7.9741 O.2     1  UNL1       -0.2464
     16 O          19.6382   71.3605  -10.1768 O.2     1  UNL1       -0.2670
     17 N          17.4998   71.6286   -6.7305 N.ar    1  UNL1       -0.2551
     18 N          17.7087   71.9962   -9.0688 N.ar    1  UNL1       -0.2743
     19 C          16.9155   72.1202   -7.9210 C.ar    1  UNL1        0.3323
     20 C          18.7739   71.0718   -6.7559 C.ar    1  UNL1        0.0869
     21 C          19.5168   70.9598   -7.8590 C.ar    1  UNL1        0.0795
     22 C          18.9798   71.4493   -9.1451 C.ar    1  UNL1        0.2626
     23 H          17.3220   72.3316   -9.9101 H       1  UNL1        0.1734
     24 O          21.3987   72.9209   -3.9211 O.3     1  UNL1       -0.2703
     25 P          22.9101   72.6923   -3.3953 P.3     1  UNL1        0.2208
     26 O          23.7352   73.8886   -4.1061 O.co2   1  UNL1       -0.4371
     27 O          23.4543   71.3193   -3.6649 O.2     1  UNL1       -0.5170
     28 O          22.8655   73.0994   -1.8341 O.3     1  UNL1       -0.2858
     29 O          20.8642   71.8561   -1.5781 O.3     1  UNL1       -0.3258
     30 O          22.4836   71.2802    2.1765 O.3     1  UNL1       -0.3794
     31 O          22.4491   69.1075    0.2987 O.3     1  UNL1       -0.3794
     32 O          22.7492   73.8485    0.8678 O.3     1  UNL1       -0.3775
     33 C          22.5136   71.4540    0.7572 C.3     1  UNL1        0.1715
     34 C          21.7160   70.3158    0.1177 C.3     1  UNL1        0.1694
     35 C          21.8959   72.8065    0.4068 C.3     1  UNL1        0.1967
     36 C          21.4772   70.5774   -1.3755 C.3     1  UNL1        0.1761
     37 C          21.6552   72.9447   -1.0975 C.3     1  UNL1        0.2704
     38 H          22.8749   70.4235    2.4057 H       1  UNL1        0.2105
     39 H          22.5934   68.9542    1.2457 H       1  UNL1        0.2105
     40 H          22.8936   73.7500    1.8214 H       1  UNL1        0.2106
     41 O          21.0929   69.1393   -3.2444 O.3     1  UNL1       -0.3794
     42 C          20.5509   69.5350   -1.9979 C.3     1  UNL1        0.1693
     43 H          20.5140   68.4757   -3.6520 H       1  UNL1        0.2105
@<TRIPOS>UNITY_ATOM_ATTR
2 1
charge -1
26 1
charge -1
@<TRIPOS>BOND
     1    25    28    1
     2    25    24    1
     3    25    26    1
     4    25    27    2
     5     1     4    1
     6     1    24    1
     7     1     2    1
     8     1     3    2
     9     6    11    1
    10     6    12    1
    11    29    36    1
    12    29    37    1
    13     7     9    1
    14     7    13    1
    15     8    10    1
    16     8    14    1
    17    28    37    1
    18     4     5    1
    19    30    33    1
    20    30    38    1
    21    31    34    1
    22    31    39    1
    23    32    35    1
    24    32    40    1
    25    41    42    1
    26    41    43    1
    27    15    19    2
    28    16    22    2
    29    17    12    1
    30    17    19   ar
    31    17    20   ar
    32    18    19   ar
    33    18    22   ar
    34    18    23    1
    35     9    10    1
    36     9    11    1
    37    10    12    1
    38    11     5    1
    39    33    34    1
    40    33    35    1
    41    34    36    1
    42    35    37    1
    43    36    42    1
    44    20    21   ar
    45    21    22   ar
@<TRIPOS>MOLECULE
*****
 43 45 0 0 0
SMALL
GASTEIGER

@<TRIPOS>ATOM
      1 P          23.1210   73.8960   -3.9381 P.3     1  UNL1        0.2189
      2 O          22.5515   75.2286   -3.2189 O.co2   1  UNL1       -0.4371
      3 O          24.5508   73.5675   -3.6229 O.2     1  UNL1       -0.5170
      4 O          22.7811   74.1239   -5.5034 O.3     1  UNL1       -0.3112
      5 C          22.1973   73.0571   -6.2308 C.3     1  UNL1        0.1811
      6 O          21.2298   72.4978   -8.3580 O.3     1  UNL1       -0.3308
      7 O          21.8040   75.3312   -9.1535 O.3     1  UNL1       -0.3794
      8 O          19.1405   75.4050   -8.5732 O.3     1  UNL1       -0.3779
      9 C          21.3972   74.8144   -7.8876 C.3     1  UNL1        0.1713
     10 C          19.9321   74.4324   -7.9219 C.3     1  UNL1        0.1895
     11 C          22.0737   73.4632   -7.6930 C.3     1  UNL1        0.1764
     12 C          19.9685   73.1110   -8.6708 C.3     1  UNL1        0.2383
     13 H          21.3848   76.1942   -9.3001 H       1  UNL1        0.2105
     14 H          19.1491   76.2268   -8.0582 H       1  UNL1        0.2106
     15 O          20.2225   70.3052   -8.4693 O.2     1  UNL1       -0.2464
     16 O          15.8366   69.8200   -7.1391 O.2     1  UNL1       -0.2670
     17 N          18.9091   72.2271   -8.2737 N.ar    1  UNL1       -0.2551
     18 N          18.0385   70.0659   -7.8069 N.ar    1  UNL1       -0.2743
     19 C          19.1404   70.8334   -8.2055 C.ar    1  UNL1        0.3323
     20 C          17.6575   72.7438   -7.9568 C.ar    1  UNL1        0.0869
     21 C          16.6168   71.9983   -7.5797 C.ar    1  UNL1        0.0795
     22 C          16.7745   70.5327   -7.4828 C.ar    1  UNL1        0.2626
     23 H          18.1761   69.0923   -7.7526 H       1  UNL1        0.1734
     24 O          22.0571   72.7618   -3.4966 O.3     1  UNL1       -0.2703
     25 P          22.2763   71.2687   -2.9173 P.3     1  UNL1        0.2208
     26 O          22.0825   71.4575   -1.3222 O.co2   1  UNL1       -0.4371
     27 O          23.5814   70.6408   -3.3125 O.2     1  UNL1       -0.5170
     28 O          20.9691   70.4501   -3.3928 O.3     1  UNL1       -0.2858
     29 O          19.3902   71.1976   -1.7912 O.3     1  UNL1       -0.3258
     30 O          16.8554   69.1031   -4.2888 O.3     1  UNL1       -0.3794
     31 O          16.7788   71.9739   -4.2744 O.3     1  UNL1       -0.3794
     32 O          19.5058   68.0800   -3.7335 O.3     1  UNL1       -0.3775
     33 C          17.9783   69.9278   -3.9660 C.3     1  UNL1        0.1715
     34 C          17.4610   71.1999   -3.2916 C.3     1  UNL1        0.1694
     35 C          18.9072   69.1609   -3.0266 C.3     1  UNL1        0.1967
     36 C          18.6117   72.0091   -2.6784 C.3     1  UNL1        0.1761
     37 C          19.9861   70.0689   -2.4337 C.3     1  UNL1        0.2704
     38 H          16.2619   69.5839   -4.8855 H       1  UNL1        0.2105
     39 H          16.0550   71.4513   -4.6541 H       1  UNL1        0.2105
     40 H          18.8124   67.5124   -4.1037 H       1  UNL1        0.2106
     41 O          16.7579   72.9551   -1.5048 O.3     1  UNL1       -0.3794
     42 C          18.1050   73.1986   -1.8659 C.3     1  UNL1        0.1693
     43 H          16.4221   73.7039   -0.9869 H       1  UNL1        0.2105
@<TRIPOS>UNITY_ATOM_ATTR
2 1
charge -1
26 1
charge -1
@<TRIPOS>BOND
     1    25    28    1
     2    25    24    1
     3    25    26    1
     4    25    27    2
     5     1     4    1
     6     1    24    1
     7     1     2    1
     8     1     3    2
     9     6    11    1
    10     6    12    1
    11    29    36    1
    12    29    37    1
    13     7     9    1
    14     7    13    1
    15     8    10    1
    16     8    14    1
    17    28    37    1
    18     4     5    1
    19    30    33    1
    20    30    38    1
    21    31    34    1
    22    31    39    1
    23    32    35    1
    24    32    40    1
    25    41    42    1
    26    41    43    1
    27    15    19    2
    28    16    22    2
    29    17    12    1
    30    17    19   ar
    31    17    20   ar
    32    18    19   ar
    33    18    22   ar
    34    18    23    1
    35     9    10    1
    36     9    11    1
    37    10    12    1
    38    11     5    1
    39    33    34    1
    40    33    35    1
    41    34    36    1
    42    35    37    1
    43    36    42    1
    44    20    21   ar
    45    21    22   ar
