@<TRIPOS>MOLECULE
UDP-glaA
 43 45 0 0 0
SMALL
GASTEIGER

@<TRIPOS>ATOM
      1 P          22.5955   72.4729   -3.4444 P.3     1  UNL1        0.2189
      2 O          23.6520   73.0068   -4.5472 O.3     1  UNL1       -0.4371
      3 O          23.2114   71.8154   -2.2441 O.2     1  UNL1       -0.5170
      4 O          21.5699   71.5588   -4.2977 O.3     1  UNL1       -0.3112
      5 C          20.7897   70.5948   -3.6112 C.3     1  UNL1        0.1811
      6 O          18.9742   71.7877   -4.6384 O.3     1  UNL1       -0.3308
      7 O          17.2497   70.6672   -2.4562 O.3     1  UNL1       -0.3794
      8 O          16.6640   69.0464   -4.5694 O.3     1  UNL1       -0.3779
      9 C          18.3475   70.0630   -3.1400 C.3     1  UNL1        0.1713
     10 C          17.9362   69.6598   -4.5403 C.3     1  UNL1        0.1895
     11 C          19.3846   71.1448   -3.4115 C.3     1  UNL1        0.1764
     12 C          17.9595   70.9911   -5.2719 C.3     1  UNL1        0.2383
     13 H          17.5703   70.9436   -1.5807 H       1  UNL1        0.2105
     14 H          16.7028   68.2645   -3.9921 H       1  UNL1        0.2106
     15 O          16.0695   70.4336   -7.2949 O.2     1  UNL1       -0.2464
     16 O          19.3043   70.4558  -10.5773 O.2     1  UNL1       -0.2670
     17 N          18.2799   70.8466   -6.6632 N.ar    1  UNL1       -0.2551
     18 N          17.6816   70.4445   -8.9280 N.ar    1  UNL1       -0.2743
     19 C          17.2565   70.5658   -7.5984 C.ar    1  UNL1        0.3323
     20 C          19.5965   70.9827   -7.0891 C.ar    1  UNL1        0.0869
     21 C          19.9857   70.8646   -8.3604 C.ar    1  UNL1        0.0795
     22 C          18.9790   70.5710   -9.3996 C.ar    1  UNL1        0.2626
     23 H          16.9629   70.2422   -9.6177 H       1  UNL1        0.1734
     24 O          21.7188   73.7911   -3.1145 O.3     1  UNL1       -0.2703
     25 P          21.9166   74.9444   -1.9995 P.3     1  UNL1        0.2208
     26 O          20.4315   75.5648   -1.8398 O.3     1  UNL1       -0.4371
     27 O          22.9768   75.9530   -2.3379 O.2     1  UNL1       -0.5170
     28 O          22.1744   74.1425   -0.6231 O.3     1  UNL1       -0.2858
     29 O          21.2325   72.1456    0.2283 O.3     1  UNL1       -0.3226
     30 O          21.7963   74.3854    3.6845 O.3     1  UNL1       -0.3794
     31 O          20.8083   75.6456    1.2469 O.3     1  UNL1       -0.3775
     32 O          21.0717   71.7911    3.0721 O.3     1  UNL1       -0.3792
     33 C          22.0500   73.8865    2.3741 C.3     1  UNL1        0.1718
     34 C          20.8906   74.2368    1.4351 C.3     1  UNL1        0.1968
     35 C          22.2238   72.3671    2.4476 C.3     1  UNL1        0.1723
     36 C          21.0725   73.5594    0.0712 C.3     1  UNL1        0.2706
     37 C          22.3549   71.7966    1.0371 C.3     1  UNL1        0.1830
     38 H          22.5527   74.1390    4.2437 H       1  UNL1        0.2105
     39 H          20.0686   75.8178    0.6402 H       1  UNL1        0.2106
     40 H          20.3321   71.8195    2.4418 H       1  UNL1        0.2106
     41 O          23.3971   69.8597    1.8529 O.co2   1  UNL1       -0.5466
     42 O          21.6352   69.5719    0.4352 O.co2   1  UNL1       -0.5466
     43 C          22.3969   70.3017    1.0531 C.2     1  UNL1        0.0799
@<TRIPOS>UNITY_ATOM_ATTR
41 1
charge -1
@<TRIPOS>BOND
     1     1     4    1
     2     1    24    1
     3     1     2    1
     4     1     3    2
     5    25    28    1
     6    25    24    1
     7    25    26    1
     8    25    27    2
     9     6    11    1
    10     6    12    1
    11    29    36    1
    12    29    37    1
    13     7     9    1
    14     7    13    1
    15     8    10    1
    16     8    14    1
    17     4     5    1
    18    28    36    1
    19    30    33    1
    20    30    38    1
    21    31    34    1
    22    31    39    1
    23    32    35    1
    24    32    40    1
    25    41    43   ar
    26    15    19    2
    27    42    43   ar
    28    16    22    2
    29    17    12    1
    30    17    19   ar
    31    17    20   ar
    32    18    19   ar
    33    18    22   ar
    34    18    23    1
    35     9    10    1
    36     9    11    1
    37    10    12    1
    38    11     5    1
    39    33    34    1
    40    33    35    1
    41    34    36    1
    42    35    37    1
    43    37    43    1
    44    20    21   ar
    45    21    22   ar
@<TRIPOS>MOLECULE
UDP-glaA
 43 45 0 0 0
SMALL
GASTEIGER

@<TRIPOS>ATOM
      1 P          22.8543   71.8835   -3.0446 P.3     1  UNL1        0.2189
      2 O          23.5357   70.4174   -3.1034 O.3     1  UNL1       -0.4371
      3 O          22.6440   72.4288   -1.6624 O.2     1  UNL1       -0.5170
      4 O          21.5231   71.7312   -3.9503 O.3     1  UNL1       -0.3112
      5 C          20.7217   72.8786   -4.1750 C.3     1  UNL1        0.1811
      6 O          18.4981   72.5623   -5.0291 O.3     1  UNL1       -0.3308
      7 O          17.9050   71.1646   -2.4434 O.3     1  UNL1       -0.3794
      8 O          18.2789   69.0879   -4.1707 O.3     1  UNL1       -0.3779
      9 C          19.1059   71.1649   -3.2152 C.3     1  UNL1        0.1713
     10 C          18.9362   70.3065   -4.4509 C.3     1  UNL1        0.1895
     11 C          19.2791   72.5546   -3.8138 C.3     1  UNL1        0.1764
     12 C          18.1219   71.2145   -5.3567 C.3     1  UNL1        0.2383
     13 H          18.0475   71.7567   -1.6854 H       1  UNL1        0.2105
     14 H          18.8076   68.6167   -3.5040 H       1  UNL1        0.2106
     15 O          16.1965   70.3159   -7.2171 O.2     1  UNL1       -0.2464
     16 O          19.2492   70.3501  -10.6694 O.2     1  UNL1       -0.2670
     17 N          18.3858   70.9808   -6.7477 N.ar    1  UNL1       -0.2551
     18 N          17.7181   70.3330   -8.9348 N.ar    1  UNL1       -0.2743
     19 C          17.3492   70.5289   -7.5974 C.ar    1  UNL1        0.3323
     20 C          19.6610   71.1990   -7.2575 C.ar    1  UNL1        0.0869
     21 C          19.9967   71.0080   -8.5352 C.ar    1  UNL1        0.0795
     22 C          18.9728   70.5360   -9.4883 C.ar    1  UNL1        0.2626
     23 H          16.9890   70.0077   -9.5639 H       1  UNL1        0.1734
     24 O          23.8291   72.7738   -3.9787 O.3     1  UNL1       -0.2703
     25 P          24.1428   74.3594   -3.9758 P.3     1  UNL1        0.2208
     26 O          23.7993   74.8028   -2.4587 O.3     1  UNL1       -0.4371
     27 O          23.4064   75.1350   -5.0302 O.2     1  UNL1       -0.5170
     28 O          25.7503   74.4584   -4.0762 O.3     1  UNL1       -0.2858
     29 O          27.3797   75.6343   -2.8265 O.3     1  UNL1       -0.3226
     30 O          28.8921   75.8917   -6.6899 O.3     1  UNL1       -0.3794
     31 O          26.0357   76.2079   -6.1929 O.3     1  UNL1       -0.3775
     32 O          29.7744   76.5080   -4.1459 O.3     1  UNL1       -0.3792
     33 C          28.2150   75.3325   -5.5678 C.3     1  UNL1        0.1718
     34 C          27.0250   76.2117   -5.1690 C.3     1  UNL1        0.1968
     35 C          29.1993   75.2221   -4.4001 C.3     1  UNL1        0.1723
     36 C          26.3950   75.7133   -3.8624 C.3     1  UNL1        0.2706
     37 C          28.4593   74.7584   -3.1472 C.3     1  UNL1        0.1830
     38 H          29.6373   75.3052   -6.9051 H       1  UNL1        0.2105
     39 H          25.3004   76.7682   -5.8924 H       1  UNL1        0.2106
     40 H          29.1048   77.0662   -3.7155 H       1  UNL1        0.2106
     41 O          28.7191   75.2885   -0.8767 O.co2   1  UNL1       -0.5466
     42 O          30.5044   74.3428   -1.9329 O.co2   1  UNL1       -0.5466
     43 C          29.3557   74.7607   -1.9500 C.2     1  UNL1        0.0799
@<TRIPOS>UNITY_ATOM_ATTR
41 1
charge -1
@<TRIPOS>BOND
     1     1     4    1
     2     1    24    1
     3     1     2    1
     4     1     3    2
     5    25    28    1
     6    25    24    1
     7    25    26    1
     8    25    27    2
     9     6    11    1
    10     6    12    1
    11    29    36    1
    12    29    37    1
    13     7     9    1
    14     7    13    1
    15     8    10    1
    16     8    14    1
    17     4     5    1
    18    28    36    1
    19    30    33    1
    20    30    38    1
    21    31    34    1
    22    31    39    1
    23    32    35    1
    24    32    40    1
    25    41    43   ar
    26    15    19    2
    27    42    43   ar
    28    16    22    2
    29    17    12    1
    30    17    19   ar
    31    17    20   ar
    32    18    19   ar
    33    18    22   ar
    34    18    23    1
    35     9    10    1
    36     9    11    1
    37    10    12    1
    38    11     5    1
    39    33    34    1
    40    33    35    1
    41    34    36    1
    42    35    37    1
    43    37    43    1
    44    20    21   ar
    45    21    22   ar
@<TRIPOS>MOLECULE
UDP-glaA
 43 45 0 0 0
SMALL
GASTEIGER

@<TRIPOS>ATOM
      1 P          22.2395   72.7346   -2.6149 P.3     1  UNL1        0.2189
      2 O          21.5915   74.2163   -2.5691 O.3     1  UNL1       -0.4371
      3 O          23.7391   72.7007   -2.6593 O.2     1  UNL1       -0.5170
      4 O          21.4832   72.0166   -3.8510 O.3     1  UNL1       -0.3112
      5 C          20.6486   70.9034   -3.5801 C.3     1  UNL1        0.1811
      6 O          18.7998   71.9585   -4.6949 O.3     1  UNL1       -0.3308
      7 O          17.0812   70.8282   -2.5131 O.3     1  UNL1       -0.3794
      8 O          16.6364   69.1017   -4.5763 O.3     1  UNL1       -0.3779
      9 C          18.2265   70.2590   -3.1471 C.3     1  UNL1        0.1713
     10 C          17.8733   69.7831   -4.5404 C.3     1  UNL1        0.1895
     11 C          19.2118   71.3842   -3.4349 C.3     1  UNL1        0.1764
     12 C          17.8452   71.0859   -5.3214 C.3     1  UNL1        0.2383
     13 H          17.3642   71.1534   -1.6414 H       1  UNL1        0.2105
     14 H          16.7014   68.3448   -3.9689 H       1  UNL1        0.2106
     15 O          16.0214   70.4594   -7.3846 O.2     1  UNL1       -0.2464
     16 O          19.3533   70.4231  -10.5682 O.2     1  UNL1       -0.2670
     17 N          18.2085   70.9077   -6.6982 N.ar    1  UNL1       -0.2551
     18 N          17.6818   70.4412   -8.9684 N.ar    1  UNL1       -0.2743
     19 C          17.2159   70.5938   -7.6559 C.ar    1  UNL1        0.3323
     20 C          19.5362   71.0438   -7.0880 C.ar    1  UNL1        0.0869
     21 C          19.9645   70.8957   -8.3435 C.ar    1  UNL1        0.0795
     22 C          18.9918   70.5664   -9.4043 C.ar    1  UNL1        0.2626
     23 H          16.9858   70.2147   -9.6737 H       1  UNL1        0.1734
     24 O          21.5875   72.0139   -1.3223 O.3     1  UNL1       -0.2703
     25 P          22.2622   71.1352   -0.1454 P.3     1  UNL1        0.2208
     26 O          23.5687   70.5016   -0.8579 O.3     1  UNL1       -0.4371
     27 O          21.3409   70.1229    0.4729 O.2     1  UNL1       -0.5170
     28 O          22.8497   72.2230    0.8916 O.3     1  UNL1       -0.2858
     29 O          21.5903   73.3360    2.5574 O.3     1  UNL1       -0.3226
     30 O          24.7081   76.0042    1.8944 O.3     1  UNL1       -0.3794
     31 O          23.4399   74.6228   -0.3393 O.3     1  UNL1       -0.3775
     32 O          22.6350   75.7518    3.7024 O.3     1  UNL1       -0.3792
     33 C          24.0407   74.7508    2.0121 C.3     1  UNL1        0.1718
     34 C          22.9107   74.6481    0.9821 C.3     1  UNL1        0.1968
     35 C          23.4721   74.6235    3.4281 C.3     1  UNL1        0.1723
     36 C          22.0791   73.3802    1.2127 C.3     1  UNL1        0.2706
     37 C          22.6325   73.3521    3.5316 C.3     1  UNL1        0.1830
     38 H          25.4118   76.0260    2.5652 H       1  UNL1        0.2105
     39 H          22.6907   74.5479   -0.9540 H       1  UNL1        0.2106
     40 H          21.8055   75.6489    3.2060 H       1  UNL1        0.2106
     41 O          20.6363   73.5599    4.7464 O.co2   1  UNL1       -0.5466
     42 O          22.4972   72.9361    5.9061 O.co2   1  UNL1       -0.5466
     43 C          21.9511   73.2529    4.8593 C.2     1  UNL1        0.0799
@<TRIPOS>UNITY_ATOM_ATTR
41 1
charge -1
@<TRIPOS>BOND
     1     1     4    1
     2     1    24    1
     3     1     2    1
     4     1     3    2
     5    25    28    1
     6    25    24    1
     7    25    26    1
     8    25    27    2
     9     6    11    1
    10     6    12    1
    11    29    36    1
    12    29    37    1
    13     7     9    1
    14     7    13    1
    15     8    10    1
    16     8    14    1
    17     4     5    1
    18    28    36    1
    19    30    33    1
    20    30    38    1
    21    31    34    1
    22    31    39    1
    23    32    35    1
    24    32    40    1
    25    41    43   ar
    26    15    19    2
    27    42    43   ar
    28    16    22    2
    29    17    12    1
    30    17    19   ar
    31    17    20   ar
    32    18    19   ar
    33    18    22   ar
    34    18    23    1
    35     9    10    1
    36     9    11    1
    37    10    12    1
    38    11     5    1
    39    33    34    1
    40    33    35    1
    41    34    36    1
    42    35    37    1
    43    37    43    1
    44    20    21   ar
    45    21    22   ar
@<TRIPOS>MOLECULE
UDP-glaA
 43 45 0 0 0
SMALL
GASTEIGER

@<TRIPOS>ATOM
      1 P          21.6491   73.9044   -5.4673 P.3     1  UNL1        0.2189
      2 O          21.1810   75.0004   -4.3731 O.3     1  UNL1       -0.4371
      3 O          22.7773   74.3393   -6.3562 O.2     1  UNL1       -0.5170
      4 O          20.2777   73.4959   -6.2209 O.3     1  UNL1       -0.3112
      5 C          19.8643   74.2636   -7.3385 C.3     1  UNL1        0.1811
      6 O          19.6053   71.9658   -7.9920 O.3     1  UNL1       -0.3308
      7 O          17.9111   72.9918  -10.2433 O.3     1  UNL1       -0.3794
      8 O          16.0523   72.1242   -8.4467 O.3     1  UNL1       -0.3779
      9 C          18.0221   73.4737   -8.9042 C.3     1  UNL1        0.1713
     10 C          17.3071   72.5411   -7.9495 C.3     1  UNL1        0.1895
     11 C          19.4740   73.3229   -8.4696 C.3     1  UNL1        0.1764
     12 C          18.2968   71.3950   -7.8271 C.3     1  UNL1        0.2383
     13 H          18.4156   73.5980  -10.8122 H       1  UNL1        0.2105
     14 H          15.5182   72.9226   -8.6000 H       1  UNL1        0.2106
     15 O          16.0823   69.8985   -6.9149 O.2     1  UNL1       -0.2464
     16 O          18.1441   68.9487   -2.9042 O.2     1  UNL1       -0.2670
     17 N          18.2281   70.7455   -6.5493 N.ar    1  UNL1       -0.2551
     18 N          17.1103   69.4270   -4.9181 N.ar    1  UNL1       -0.2743
     19 C          17.0696   70.0192   -6.1872 C.ar    1  UNL1        0.3323
     20 C          19.3013   70.8317   -5.6693 C.ar    1  UNL1        0.0869
     21 C          19.3250   70.2610   -4.4629 C.ar    1  UNL1        0.0795
     22 C          18.1542   69.4852   -4.0078 C.ar    1  UNL1        0.2626
     23 H          16.2879   68.9003   -4.6363 H       1  UNL1        0.1734
     24 O          21.9679   72.6025   -4.5625 O.3     1  UNL1       -0.2703
     25 P          23.1335   72.3248   -3.4777 P.3     1  UNL1        0.2208
     26 O          24.3619   73.2309   -4.0128 O.3     1  UNL1       -0.4371
     27 O          23.4690   70.8727   -3.2921 O.2     1  UNL1       -0.5170
     28 O          22.6304   73.0694   -2.1373 O.3     1  UNL1       -0.2858
     29 O          21.6572   71.3603   -0.8216 O.3     1  UNL1       -0.3226
     30 O          21.3958   74.6555    1.6989 O.3     1  UNL1       -0.3794
     31 O          20.8366   74.9220   -1.1511 O.3     1  UNL1       -0.3775
     32 O          20.9590   71.9356    1.9024 O.3     1  UNL1       -0.3792
     33 C          21.9319   73.7915    0.7007 C.3     1  UNL1        0.1718
     34 C          20.9623   73.6727   -0.4801 C.3     1  UNL1        0.1968
     35 C          22.1761   72.4121    1.3188 C.3     1  UNL1        0.1723
     36 C          21.4491   72.6150   -1.4784 C.3     1  UNL1        0.2706
     37 C          22.6162   71.4334    0.2323 C.3     1  UNL1        0.1830
     38 H          22.0399   74.6989    2.4260 H       1  UNL1        0.2105
     39 H          20.2226   74.7956   -1.8939 H       1  UNL1        0.2106
     40 H          20.3580   71.6666    1.1871 H       1  UNL1        0.2106
     41 O          23.3409   70.0487    1.9819 O.co2   1  UNL1       -0.5466
     42 O          22.3554   69.0333    0.1945 O.co2   1  UNL1       -0.5466
     43 C          22.7413   70.0422    0.7669 C.2     1  UNL1        0.0799
@<TRIPOS>UNITY_ATOM_ATTR
41 1
charge -1
@<TRIPOS>BOND
     1     1     4    1
     2     1    24    1
     3     1     2    1
     4     1     3    2
     5    25    28    1
     6    25    24    1
     7    25    26    1
     8    25    27    2
     9     6    11    1
    10     6    12    1
    11    29    36    1
    12    29    37    1
    13     7     9    1
    14     7    13    1
    15     8    10    1
    16     8    14    1
    17     4     5    1
    18    28    36    1
    19    30    33    1
    20    30    38    1
    21    31    34    1
    22    31    39    1
    23    32    35    1
    24    32    40    1
    25    41    43   ar
    26    15    19    2
    27    42    43   ar
    28    16    22    2
    29    17    12    1
    30    17    19   ar
    31    17    20   ar
    32    18    19   ar
    33    18    22   ar
    34    18    23    1
    35     9    10    1
    36     9    11    1
    37    10    12    1
    38    11     5    1
    39    33    34    1
    40    33    35    1
    41    34    36    1
    42    35    37    1
    43    37    43    1
    44    20    21   ar
    45    21    22   ar
@<TRIPOS>MOLECULE
UDP-glaA
 43 45 0 0 0
SMALL
GASTEIGER

@<TRIPOS>ATOM
      1 P          22.8719   71.8070   -2.3909 P.3     1  UNL1        0.2189
      2 O          23.6461   73.2216   -2.5202 O.3     1  UNL1       -0.4371
      3 O          23.4386   70.6966   -3.2263 O.2     1  UNL1       -0.5170
      4 O          21.3248   72.1820   -2.6762 O.3     1  UNL1       -0.3112
      5 C          20.5869   71.3740   -3.5773 C.3     1  UNL1        0.1811
      6 O          18.6371   72.1879   -4.7218 O.3     1  UNL1       -0.3308
      7 O          17.0474   70.9618   -2.4945 O.3     1  UNL1       -0.3794
      8 O          16.7868   69.1252   -4.4932 O.3     1  UNL1       -0.3779
      9 C          18.2463   70.4941   -3.1123 C.3     1  UNL1        0.1713
     10 C          17.9450   69.9340   -4.4864 C.3     1  UNL1        0.1895
     11 C          19.1075   71.7057   -3.4438 C.3     1  UNL1        0.1764
     12 C          17.7797   71.1978   -5.3131 C.3     1  UNL1        0.2383
     13 H          17.2946   71.3460   -1.6361 H       1  UNL1        0.2105
     14 H          16.9314   68.4016   -3.8594 H       1  UNL1        0.2106
     15 O          16.0207   70.3531   -7.3547 O.2     1  UNL1       -0.2464
     16 O          19.3493   70.5076  -10.5383 O.2     1  UNL1       -0.2670
     17 N          18.1596   71.0095   -6.6841 N.ar    1  UNL1       -0.2551
     18 N          17.6795   70.4301   -8.9386 N.ar    1  UNL1       -0.2743
     19 C          17.1997   70.5819   -7.6309 C.ar    1  UNL1        0.3323
     20 C          19.4713   71.2480   -7.0789 C.ar    1  UNL1        0.0869
     21 C          19.9131   71.0991   -8.3297 C.ar    1  UNL1        0.0795
     22 C          18.9746   70.6547   -9.3790 C.ar    1  UNL1        0.2626
     23 H          17.0070   70.1228   -9.6361 H       1  UNL1        0.1734
     24 O          22.8901   71.5282   -0.7981 O.3     1  UNL1       -0.2703
     25 P          22.0405   70.4929    0.1069 P.3     1  UNL1        0.2208
     26 O          23.1846   69.6177    0.8425 O.3     1  UNL1       -0.4371
     27 O          21.0379   69.6814   -0.6625 O.2     1  UNL1       -0.5170
     28 O          21.4043   71.4013    1.2791 O.3     1  UNL1       -0.2858
     29 O          21.8220   73.7164    1.0234 O.3     1  UNL1       -0.3226
     30 O          20.1698   73.5451    4.8340 O.3     1  UNL1       -0.3794
     31 O          22.0775   71.5222    3.9539 O.3     1  UNL1       -0.3775
     32 O          20.8892   75.5252    3.0475 O.3     1  UNL1       -0.3792
     33 C          20.3876   73.2001    3.4687 C.3     1  UNL1        0.1718
     34 C          21.8341   72.7401    3.2580 C.3     1  UNL1        0.1968
     35 C          20.0946   74.4236    2.5960 C.3     1  UNL1        0.1723
     36 C          22.1260   72.5315    1.7668 C.3     1  UNL1        0.2706
     37 C          20.4582   74.1176    1.1446 C.3     1  UNL1        0.1830
     38 H          19.2446   73.8319    4.9200 H       1  UNL1        0.2105
     39 H          22.9997   71.2663    3.7837 H       1  UNL1        0.2106
     40 H          21.8102   75.3736    2.7755 H       1  UNL1        0.2106
     41 O          20.6610   75.0444   -1.0010 O.co2   1  UNL1       -0.5466
     42 O          19.9237   76.4216    0.6594 O.co2   1  UNL1       -0.5466
     43 C          20.3102   75.3268    0.2769 C.2     1  UNL1        0.0799
@<TRIPOS>UNITY_ATOM_ATTR
41 1
charge -1
@<TRIPOS>BOND
     1     1     4    1
     2     1    24    1
     3     1     2    1
     4     1     3    2
     5    25    28    1
     6    25    24    1
     7    25    26    1
     8    25    27    2
     9     6    11    1
    10     6    12    1
    11    29    36    1
    12    29    37    1
    13     7     9    1
    14     7    13    1
    15     8    10    1
    16     8    14    1
    17     4     5    1
    18    28    36    1
    19    30    33    1
    20    30    38    1
    21    31    34    1
    22    31    39    1
    23    32    35    1
    24    32    40    1
    25    41    43   ar
    26    15    19    2
    27    42    43   ar
    28    16    22    2
    29    17    12    1
    30    17    19   ar
    31    17    20   ar
    32    18    19   ar
    33    18    22   ar
    34    18    23    1
    35     9    10    1
    36     9    11    1
    37    10    12    1
    38    11     5    1
    39    33    34    1
    40    33    35    1
    41    34    36    1
    42    35    37    1
    43    37    43    1
    44    20    21   ar
    45    21    22   ar
@<TRIPOS>MOLECULE
UDP-glaA
 43 45 0 0 0
SMALL
GASTEIGER

@<TRIPOS>ATOM
      1 P          22.6464   71.4951   -2.7346 P.3     1  UNL1        0.2189
      2 O          23.0214   72.9428   -3.3518 O.3     1  UNL1       -0.4371
      3 O          23.4759   70.3544   -3.2471 O.2     1  UNL1       -0.5170
      4 O          21.0523   71.3694   -2.9767 O.3     1  UNL1       -0.3112
      5 C          20.3677   72.4636   -3.5626 C.3     1  UNL1        0.1811
      6 O          18.2478   72.4054   -4.6927 O.3     1  UNL1       -0.3308
      7 O          17.2204   70.9293   -2.2933 O.3     1  UNL1       -0.3794
      8 O          17.6238   68.9251   -4.0978 O.3     1  UNL1       -0.3779
      9 C          18.5030   70.8592   -2.9160 C.3     1  UNL1        0.1713
     10 C          18.4139   70.0900   -4.2171 C.3     1  UNL1        0.1895
     11 C          18.8688   72.2573   -3.3967 C.3     1  UNL1        0.1764
     12 C          17.7997   71.1191   -5.1508 C.3     1  UNL1        0.2383
     13 H          17.3188   71.4627   -1.4863 H       1  UNL1        0.2105
     14 H          18.0231   68.3702   -3.4059 H       1  UNL1        0.2106
     15 O          20.4499   71.4428   -6.0712 O.2     1  UNL1       -0.2464
     16 O          19.2669   70.4025  -10.4021 O.2     1  UNL1       -0.2670
     17 N          18.2125   70.9386   -6.5133 N.ar    1  UNL1       -0.2551
     18 N          19.8589   70.9251   -8.2273 N.ar    1  UNL1       -0.2743
     19 C          19.5679   71.1264   -6.8716 C.ar    1  UNL1        0.3323
     20 C          17.2785   70.5795   -7.4788 C.ar    1  UNL1        0.0869
     21 C          17.5718   70.3908   -8.7672 C.ar    1  UNL1        0.0795
     22 C          18.9644   70.5679   -9.2243 C.ar    1  UNL1        0.2626
     23 H          20.8271   71.0552   -8.5080 H       1  UNL1        0.1734
     24 O          22.7530   71.7424   -1.1400 O.3     1  UNL1       -0.2703
     25 P          22.4607   70.7571    0.1076 P.3     1  UNL1        0.2208
     26 O          23.7369   69.7635    0.1027 O.3     1  UNL1       -0.4371
     27 O          21.1319   70.0600    0.0437 O.2     1  UNL1       -0.5170
     28 O          22.6669   71.6804    1.4148 O.3     1  UNL1       -0.2858
     29 O          21.8700   72.4365    3.5107 O.3     1  UNL1       -0.3226
     30 O          21.1057   75.7043    1.0579 O.3     1  UNL1       -0.3794
     31 O          20.6200   72.9909    0.1052 O.3     1  UNL1       -0.3775
     32 O          21.0078   75.1624    3.7647 O.3     1  UNL1       -0.3792
     33 C          21.7817   74.5543    1.5587 C.3     1  UNL1        0.1718
     34 C          20.8778   73.3204    1.4660 C.3     1  UNL1        0.1968
     35 C          22.1753   74.8071    3.0167 C.3     1  UNL1        0.1723
     36 C          21.5294   72.1165    2.1577 C.3     1  UNL1        0.2706
     37 C          22.7738   73.5356    3.6145 C.3     1  UNL1        0.1830
     38 H          21.7128   76.4597    1.1381 H       1  UNL1        0.2105
     39 H          20.0538   72.2009    0.0968 H       1  UNL1        0.2106
     40 H          20.4715   74.3626    3.8986 H       1  UNL1        0.2106
     41 O          22.0581   73.1533    5.8157 O.co2   1  UNL1       -0.5466
     42 O          24.0437   74.2398    5.5435 O.co2   1  UNL1       -0.5466
     43 C          23.0538   73.6968    5.0748 C.2     1  UNL1        0.0799
@<TRIPOS>UNITY_ATOM_ATTR
41 1
charge -1
@<TRIPOS>BOND
     1     1     4    1
     2     1    24    1
     3     1     2    1
     4     1     3    2
     5    25    28    1
     6    25    24    1
     7    25    26    1
     8    25    27    2
     9     6    11    1
    10     6    12    1
    11    29    36    1
    12    29    37    1
    13     7     9    1
    14     7    13    1
    15     8    10    1
    16     8    14    1
    17     4     5    1
    18    28    36    1
    19    30    33    1
    20    30    38    1
    21    31    34    1
    22    31    39    1
    23    32    35    1
    24    32    40    1
    25    41    43   ar
    26    15    19    2
    27    42    43   ar
    28    16    22    2
    29    17    12    1
    30    17    19   ar
    31    17    20   ar
    32    18    19   ar
    33    18    22   ar
    34    18    23    1
    35     9    10    1
    36     9    11    1
    37    10    12    1
    38    11     5    1
    39    33    34    1
    40    33    35    1
    41    34    36    1
    42    35    37    1
    43    37    43    1
    44    20    21   ar
    45    21    22   ar
@<TRIPOS>MOLECULE
UDP-glaA
 43 45 0 0 0
SMALL
GASTEIGER

@<TRIPOS>ATOM
      1 P          20.2616   70.2411   -3.4528 P.3     1  UNL1        0.2189
      2 O          19.7598   69.7696   -4.9167 O.3     1  UNL1       -0.4371
      3 O          20.9889   69.1915   -2.6645 O.2     1  UNL1       -0.5170
      4 O          18.9304   70.8440   -2.7599 O.3     1  UNL1       -0.3112
      5 C          17.7784   71.0397   -3.5623 C.3     1  UNL1        0.1811
      6 O          18.3931   72.8269   -5.0464 O.3     1  UNL1       -0.3308
      7 O          16.0641   74.3286   -3.9008 O.3     1  UNL1       -0.3794
      8 O          15.0783   73.4229   -6.2765 O.3     1  UNL1       -0.3779
      9 C          16.1936   72.9332   -4.1724 C.3     1  UNL1        0.1713
     10 C          16.1099   72.6782   -5.6626 C.3     1  UNL1        0.1895
     11 C          17.6271   72.5248   -3.8593 C.3     1  UNL1        0.1764
     12 C          17.4922   73.0977   -6.1329 C.3     1  UNL1        0.2383
     13 H          16.1629   74.4474   -2.9408 H       1  UNL1        0.2105
     14 H          14.2422   73.1752   -5.8454 H       1  UNL1        0.2106
     15 O          16.4908   70.5665   -6.8847 O.2     1  UNL1       -0.2464
     16 O          19.2210   70.3845  -10.5930 O.2     1  UNL1       -0.2670
     17 N          17.9229   72.3664   -7.2901 N.ar    1  UNL1       -0.2551
     18 N          17.8513   70.4773   -8.7305 N.ar    1  UNL1       -0.2743
     19 C          17.3571   71.1025   -7.5781 C.ar    1  UNL1        0.3323
     20 C          18.8963   72.9024   -8.1260 C.ar    1  UNL1        0.0869
     21 C          19.3566   72.2941   -9.2215 C.ar    1  UNL1        0.0795
     22 C          18.8186   70.9704   -9.5926 C.ar    1  UNL1        0.2626
     23 H          17.4594   69.5672   -8.9569 H       1  UNL1        0.1734
     24 O          21.1330   71.5642   -3.7772 O.3     1  UNL1       -0.2703
     25 P          22.6832   71.9122   -3.4795 P.3     1  UNL1        0.2208
     26 O          23.1387   72.7331   -4.7966 O.3     1  UNL1       -0.4371
     27 O          23.5349   70.7144   -3.1700 O.2     1  UNL1       -0.5170
     28 O          22.6359   73.0179   -2.3052 O.3     1  UNL1       -0.2858
     29 O          21.4737   71.8829   -0.5846 O.3     1  UNL1       -0.3226
     30 O          22.6985   75.3589    1.3380 O.3     1  UNL1       -0.3794
     31 O          21.7012   75.4535   -1.4011 O.3     1  UNL1       -0.3775
     32 O          21.5213   72.9701    2.0714 O.3     1  UNL1       -0.3792
     33 C          22.7489   74.2566    0.4365 C.3     1  UNL1        0.1718
     34 C          21.5778   74.3189   -0.5499 C.3     1  UNL1        0.1968
     35 C          22.6873   72.9555    1.2412 C.3     1  UNL1        0.1723
     36 C          21.5245   73.0507   -1.4108 C.3     1  UNL1        0.2706
     37 C          22.5967   71.7661    0.2877 C.3     1  UNL1        0.1830
     38 H          23.4549   75.2774    1.9436 H       1  UNL1        0.2105
     39 H          20.9453   75.4454   -2.0121 H       1  UNL1        0.2106
     40 H          20.7406   72.8273    1.5099 H       1  UNL1        0.2106
     41 O          23.0707   70.5075    2.2099 O.co2   1  UNL1       -0.5466
     42 O          21.7361   69.5374    0.6369 O.co2   1  UNL1       -0.5466
     43 C          22.4041   70.4824    1.0307 C.2     1  UNL1        0.0799
@<TRIPOS>UNITY_ATOM_ATTR
41 1
charge -1
@<TRIPOS>BOND
     1     1     4    1
     2     1    24    1
     3     1     2    1
     4     1     3    2
     5    25    28    1
     6    25    24    1
     7    25    26    1
     8    25    27    2
     9     6    11    1
    10     6    12    1
    11    29    36    1
    12    29    37    1
    13     7     9    1
    14     7    13    1
    15     8    10    1
    16     8    14    1
    17     4     5    1
    18    28    36    1
    19    30    33    1
    20    30    38    1
    21    31    34    1
    22    31    39    1
    23    32    35    1
    24    32    40    1
    25    41    43   ar
    26    15    19    2
    27    42    43   ar
    28    16    22    2
    29    17    12    1
    30    17    19   ar
    31    17    20   ar
    32    18    19   ar
    33    18    22   ar
    34    18    23    1
    35     9    10    1
    36     9    11    1
    37    10    12    1
    38    11     5    1
    39    33    34    1
    40    33    35    1
    41    34    36    1
    42    35    37    1
    43    37    43    1
    44    20    21   ar
    45    21    22   ar
@<TRIPOS>MOLECULE
UDP-glaA
 43 45 0 0 0
SMALL
GASTEIGER

@<TRIPOS>ATOM
      1 P          22.7811   72.7628   -3.7254 P.3     1  UNL1        0.2189
      2 O          23.2291   73.6621   -4.9935 O.3     1  UNL1       -0.4371
      3 O          23.4708   71.4345   -3.6162 O.2     1  UNL1       -0.5170
      4 O          21.1684   72.7105   -3.8350 O.3     1  UNL1       -0.3112
      5 C          20.4974   71.5403   -3.3995 C.3     1  UNL1        0.1811
      6 O          18.5462   72.2976   -4.5801 O.3     1  UNL1       -0.3308
      7 O          16.9523   71.0398   -2.3735 O.3     1  UNL1       -0.3794
      8 O          16.7735   69.1882   -4.3674 O.3     1  UNL1       -0.3779
      9 C          18.1732   70.6011   -2.9691 C.3     1  UNL1        0.1713
     10 C          17.9097   70.0272   -4.3453 C.3     1  UNL1        0.1895
     11 C          19.0077   71.8336   -3.2921 C.3     1  UNL1        0.1764
     12 C          17.7251   71.2826   -5.1808 C.3     1  UNL1        0.2383
     13 H          17.1750   71.4342   -1.5130 H       1  UNL1        0.2105
     14 H          16.9264   68.4715   -3.7278 H       1  UNL1        0.2106
     15 O          16.0258   70.3736   -7.2451 O.2     1  UNL1       -0.2464
     16 O          19.3992   70.6115  -10.3759 O.2     1  UNL1       -0.2670
     17 N          18.1327   71.0984   -6.5443 N.ar    1  UNL1       -0.2551
     18 N          17.7069   70.4921   -8.8027 N.ar    1  UNL1       -0.2743
     19 C          17.2016   70.6365   -7.5038 C.ar    1  UNL1        0.3323
     20 C          19.4428   71.3744   -6.9195 C.ar    1  UNL1        0.0869
     21 C          19.9091   71.2321   -8.1621 C.ar    1  UNL1        0.0795
     22 C          19.0015   70.7535   -9.2237 C.ar    1  UNL1        0.2626
     23 H          17.0554   70.1607   -9.5089 H       1  UNL1        0.1734
     24 O          23.0279   73.7548   -2.4724 O.3     1  UNL1       -0.2703
     25 P          22.9114   73.5012   -0.8803 P.3     1  UNL1        0.2208
     26 O          24.1780   74.3100   -0.2820 O.3     1  UNL1       -0.4371
     27 O          22.8606   72.0519   -0.4895 O.2     1  UNL1       -0.5170
     28 O          21.6247   74.3607   -0.4224 O.3     1  UNL1       -0.2858
     29 O          20.8993   73.1792    1.4952 O.3     1  UNL1       -0.3226
     30 O          18.5033   76.5743    1.6058 O.3     1  UNL1       -0.3794
     31 O          19.0527   75.2303   -0.9236 O.3     1  UNL1       -0.3775
     32 O          19.0322   74.4380    3.2751 O.3     1  UNL1       -0.3792
     33 C          19.6597   75.7773    1.3653 C.3     1  UNL1        0.1718
     34 C          19.3452   74.6710    0.3526 C.3     1  UNL1        0.1968
     35 C          20.1201   75.1604    2.6889 C.3     1  UNL1        0.1723
     36 C          20.5296   73.7062    0.2167 C.3     1  UNL1        0.2706
     37 C          21.2711   74.1907    2.4303 C.3     1  UNL1        0.1830
     38 H          18.7476   77.2580    2.2527 H       1  UNL1        0.2105
     39 H          18.8700   74.4942   -1.5316 H       1  UNL1        0.2106
     40 H          18.9010   73.6160    2.7729 H       1  UNL1        0.2106
     41 O          21.5975   74.2904    4.7513 O.co2   1  UNL1       -0.5466
     42 O          22.0066   72.2936    3.7302 O.co2   1  UNL1       -0.5466
     43 C          21.6677   73.4670    3.6776 C.2     1  UNL1        0.0799
@<TRIPOS>UNITY_ATOM_ATTR
41 1
charge -1
@<TRIPOS>BOND
     1     1     4    1
     2     1    24    1
     3     1     2    1
     4     1     3    2
     5    25    28    1
     6    25    24    1
     7    25    26    1
     8    25    27    2
     9     6    11    1
    10     6    12    1
    11    29    36    1
    12    29    37    1
    13     7     9    1
    14     7    13    1
    15     8    10    1
    16     8    14    1
    17     4     5    1
    18    28    36    1
    19    30    33    1
    20    30    38    1
    21    31    34    1
    22    31    39    1
    23    32    35    1
    24    32    40    1
    25    41    43   ar
    26    15    19    2
    27    42    43   ar
    28    16    22    2
    29    17    12    1
    30    17    19   ar
    31    17    20   ar
    32    18    19   ar
    33    18    22   ar
    34    18    23    1
    35     9    10    1
    36     9    11    1
    37    10    12    1
    38    11     5    1
    39    33    34    1
    40    33    35    1
    41    34    36    1
    42    35    37    1
    43    37    43    1
    44    20    21   ar
    45    21    22   ar
@<TRIPOS>MOLECULE
UDP-glaA
 43 45 0 0 0
SMALL
GASTEIGER

@<TRIPOS>ATOM
      1 P          21.3194   74.0342   -5.4272 P.3     1  UNL1        0.2189
      2 O          20.0924   74.5525   -4.5090 O.3     1  UNL1       -0.4371
      3 O          22.4368   75.0199   -5.6057 O.2     1  UNL1       -0.5170
      4 O          20.6030   73.5300   -6.7866 O.3     1  UNL1       -0.3112
      5 C          21.3368   72.7010   -7.6718 C.3     1  UNL1        0.1811
      6 O          19.9697   70.7561   -8.0221 O.3     1  UNL1       -0.3308
      7 O          18.5242   72.3750  -10.0911 O.3     1  UNL1       -0.3794
      8 O          16.8401   72.5043   -7.9503 O.3     1  UNL1       -0.3779
      9 C          19.0821   72.7925   -8.8453 C.3     1  UNL1        0.1713
     10 C          18.2172   72.3174   -7.6969 C.3     1  UNL1        0.1895
     11 C          20.3687   72.0090   -8.6207 C.3     1  UNL1        0.1764
     12 C          18.5992   70.8502   -7.5999 C.3     1  UNL1        0.2383
     13 H          19.1307   72.6672  -10.7927 H       1  UNL1        0.2105
     14 H          16.6978   73.4535   -8.1082 H       1  UNL1        0.2106
     15 O          16.2010   69.8983   -6.4521 O.2     1  UNL1       -0.2464
     16 O          18.2846   68.9237   -2.4587 O.2     1  UNL1       -0.2670
     17 N          18.4864   70.3416   -6.2628 N.ar    1  UNL1       -0.2551
     18 N          17.2400   69.4141   -4.4642 N.ar    1  UNL1       -0.2743
     19 C          17.2354   69.8888   -5.7824 C.ar    1  UNL1        0.3323
     20 C          19.6077   70.2952   -5.4419 C.ar    1  UNL1        0.0869
     21 C          19.5959   69.8393   -4.1874 C.ar    1  UNL1        0.0795
     22 C          18.3292   69.3486   -3.6091 C.ar    1  UNL1        0.2626
     23 H          16.3514   69.0839   -4.0974 H       1  UNL1        0.1734
     24 O          21.7501   72.6507   -4.7091 O.3     1  UNL1       -0.2703
     25 P          22.8270   72.3528   -3.5411 P.3     1  UNL1        0.2208
     26 O          24.1810   73.0377   -4.1014 O.3     1  UNL1       -0.4371
     27 O          22.9673   70.8996   -3.1887 O.2     1  UNL1       -0.5170
     28 O          22.3702   73.2954   -2.3136 O.3     1  UNL1       -0.2858
     29 O          22.3391   73.1697    0.0492 O.3     1  UNL1       -0.3226
     30 O          18.5832   74.7414   -0.7891 O.3     1  UNL1       -0.3794
     31 O          19.6987   72.6095   -2.4373 O.3     1  UNL1       -0.3775
     32 O          20.1114   74.2936    1.4679 O.3     1  UNL1       -0.3792
     33 C          19.9798   74.4993   -0.9352 C.3     1  UNL1        0.1718
     34 C          20.2409   73.0098   -1.1833 C.3     1  UNL1        0.1968
     35 C          20.6969   74.9518    0.3397 C.3     1  UNL1        0.1723
     36 C          21.7456   72.7127   -1.1706 C.3     1  UNL1        0.2706
     37 C          22.1737   74.5709    0.2605 C.3     1  UNL1        0.1830
     38 H          18.4654   75.6937   -0.6318 H       1  UNL1        0.2105
     39 H          19.8963   71.6650   -2.5543 H       1  UNL1        0.2106
     40 H          20.3971   73.3644    1.4660 H       1  UNL1        0.2106
     41 O          22.4509   76.0490    2.0611 O.co2   1  UNL1       -0.5466
     42 O          23.7446   74.1720    2.0501 O.co2   1  UNL1       -0.5466
     43 C          22.8872   74.8775    1.5387 C.2     1  UNL1        0.0799
@<TRIPOS>UNITY_ATOM_ATTR
41 1
charge -1
@<TRIPOS>BOND
     1     1     4    1
     2     1    24    1
     3     1     2    1
     4     1     3    2
     5    25    28    1
     6    25    24    1
     7    25    26    1
     8    25    27    2
     9     6    11    1
    10     6    12    1
    11    29    36    1
    12    29    37    1
    13     7     9    1
    14     7    13    1
    15     8    10    1
    16     8    14    1
    17     4     5    1
    18    28    36    1
    19    30    33    1
    20    30    38    1
    21    31    34    1
    22    31    39    1
    23    32    35    1
    24    32    40    1
    25    41    43   ar
    26    15    19    2
    27    42    43   ar
    28    16    22    2
    29    17    12    1
    30    17    19   ar
    31    17    20   ar
    32    18    19   ar
    33    18    22   ar
    34    18    23    1
    35     9    10    1
    36     9    11    1
    37    10    12    1
    38    11     5    1
    39    33    34    1
    40    33    35    1
    41    34    36    1
    42    35    37    1
    43    37    43    1
    44    20    21   ar
    45    21    22   ar
@<TRIPOS>MOLECULE
UDP-glaA
 43 45 0 0 0
SMALL
GASTEIGER

@<TRIPOS>ATOM
      1 P          22.9344   72.1130   -2.9868 P.3     1  UNL1        0.2189
      2 O          23.4684   70.5986   -3.1835 O.3     1  UNL1       -0.4371
      3 O          22.9452   72.6091   -1.5705 O.2     1  UNL1       -0.5170
      4 O          21.4939   72.1170   -3.7220 O.3     1  UNL1       -0.3112
      5 C          20.6617   70.9774   -3.5877 C.3     1  UNL1        0.1811
      6 O          18.7926   71.9939   -4.7046 O.3     1  UNL1       -0.3308
      7 O          17.0977   70.8425   -2.5153 O.3     1  UNL1       -0.3794
      8 O          16.6814   69.0989   -4.5701 O.3     1  UNL1       -0.3779
      9 C          18.2523   70.2913   -3.1484 C.3     1  UNL1        0.1713
     10 C          17.9058   69.8028   -4.5390 C.3     1  UNL1        0.1895
     11 C          19.2166   71.4328   -3.4426 C.3     1  UNL1        0.1764
     12 C          17.8531   71.1013   -5.3258 C.3     1  UNL1        0.2383
     13 H          17.3758   71.1767   -1.6455 H       1  UNL1        0.2105
     14 H          16.7610   68.3460   -3.9594 H       1  UNL1        0.2106
     15 O          16.0344   70.4553   -7.3875 O.2     1  UNL1       -0.2464
     16 O          19.3661   70.4410  -10.5715 O.2     1  UNL1       -0.2670
     17 N          18.2177   70.9234   -6.7023 N.ar    1  UNL1       -0.2551
     18 N          17.6947   70.4481   -8.9716 N.ar    1  UNL1       -0.2743
     19 C          17.2277   70.5993   -7.6592 C.ar    1  UNL1        0.3323
     20 C          19.5442   71.0701   -7.0925 C.ar    1  UNL1        0.0869
     21 C          19.9735   70.9232   -8.3479 C.ar    1  UNL1        0.0795
     22 C          19.0036   70.5835   -9.4078 C.ar    1  UNL1        0.2626
     23 H          17.0006   70.2143   -9.6763 H       1  UNL1        0.1734
     24 O          23.8636   72.9598   -4.0041 O.3     1  UNL1       -0.2703
     25 P          24.3419   74.5033   -3.9679 P.3     1  UNL1        0.2208
     26 O          23.7992   75.0265   -2.5369 O.3     1  UNL1       -0.4371
     27 O          23.8805   75.3188   -5.1418 O.2     1  UNL1       -0.5170
     28 O          25.9446   74.4309   -3.7952 O.3     1  UNL1       -0.2858
     29 O          26.7185   76.3119   -2.5859 O.3     1  UNL1       -0.3226
     30 O          30.2693   74.3856   -3.5662 O.3     1  UNL1       -0.3794
     31 O          28.1035   74.5798   -5.5098 O.3     1  UNL1       -0.3775
     32 O          29.5145   76.5078   -1.9673 O.3     1  UNL1       -0.3792
     33 C          28.8967   74.5326   -3.2131 C.3     1  UNL1        0.1718
     34 C          28.1480   75.3194   -4.2942 C.3     1  UNL1        0.1968
     35 C          28.8061   75.2676   -1.8729 C.3     1  UNL1        0.1723
     36 C          26.7150   75.6310   -3.8450 C.3     1  UNL1        0.2706
     37 C          27.3435   75.5608   -1.5462 C.3     1  UNL1        0.1830
     38 H          30.7033   73.8851   -2.8544 H       1  UNL1        0.2105
     39 H          27.6134   75.1119   -6.1592 H       1  UNL1        0.2106
     40 H          28.9878   77.1243   -2.5037 H       1  UNL1        0.2106
     41 O          26.6536   75.6737    0.6933 O.co2   1  UNL1       -0.5466
     42 O          27.5683   77.5576   -0.2075 O.co2   1  UNL1       -0.5466
     43 C          27.2150   76.3917   -0.3092 C.2     1  UNL1        0.0799
@<TRIPOS>UNITY_ATOM_ATTR
41 1
charge -1
@<TRIPOS>BOND
     1     1     4    1
     2     1    24    1
     3     1     2    1
     4     1     3    2
     5    25    28    1
     6    25    24    1
     7    25    26    1
     8    25    27    2
     9     6    11    1
    10     6    12    1
    11    29    36    1
    12    29    37    1
    13     7     9    1
    14     7    13    1
    15     8    10    1
    16     8    14    1
    17     4     5    1
    18    28    36    1
    19    30    33    1
    20    30    38    1
    21    31    34    1
    22    31    39    1
    23    32    35    1
    24    32    40    1
    25    41    43   ar
    26    15    19    2
    27    42    43   ar
    28    16    22    2
    29    17    12    1
    30    17    19   ar
    31    17    20   ar
    32    18    19   ar
    33    18    22   ar
    34    18    23    1
    35     9    10    1
    36     9    11    1
    37    10    12    1
    38    11     5    1
    39    33    34    1
    40    33    35    1
    41    34    36    1
    42    35    37    1
    43    37    43    1
    44    20    21   ar
    45    21    22   ar
@<TRIPOS>MOLECULE
UDP-glaA
 43 45 0 0 0
SMALL
GASTEIGER

@<TRIPOS>ATOM
      1 P          23.0543   71.8959   -3.1959 P.3     1  UNL1        0.2189
      2 O          23.8439   72.9665   -4.1166 O.3     1  UNL1       -0.4371
      3 O          23.6351   70.5121   -3.1947 O.2     1  UNL1       -0.5170
      4 O          21.5192   72.0135   -3.6910 O.3     1  UNL1       -0.3112
      5 C          20.6735   70.8847   -3.5496 C.3     1  UNL1        0.1811
      6 O          18.8174   71.9340   -4.6579 O.3     1  UNL1       -0.3308
      7 O          17.1087   70.7900   -2.4756 O.3     1  UNL1       -0.3794
      8 O          16.6677   69.0667   -4.5423 O.3     1  UNL1       -0.3779
      9 C          18.2554   70.2278   -3.1134 C.3     1  UNL1        0.1713
     10 C          17.9015   69.7539   -4.5072 C.3     1  UNL1        0.1895
     11 C          19.2347   71.3584   -3.4003 C.3     1  UNL1        0.1764
     12 C          17.8656   71.0585   -5.2848 C.3     1  UNL1        0.2383
     13 H          17.3918   71.1143   -1.6036 H       1  UNL1        0.2105
     14 H          16.7376   68.3085   -3.9369 H       1  UNL1        0.2106
     15 O          16.0451   70.4009   -7.3411 O.2     1  UNL1       -0.2464
     16 O          19.3659   70.4177  -10.5365 O.2     1  UNL1       -0.2670
     17 N          18.2269   70.8855   -6.6627 N.ar    1  UNL1       -0.2551
     18 N          17.7000   70.4092   -8.9309 N.ar    1  UNL1       -0.2743
     19 C          17.2363   70.5548   -7.6167 C.ar    1  UNL1        0.3323
     20 C          19.5509   71.0433   -7.0573 C.ar    1  UNL1        0.0869
     21 C          19.9771   70.9016   -8.3143 C.ar    1  UNL1        0.0795
     22 C          19.0062   70.5557   -9.3714 C.ar    1  UNL1        0.2626
     23 H          17.0054   70.1709   -9.6336 H       1  UNL1        0.1734
     24 O          23.0249   72.6153   -1.7478 O.3     1  UNL1       -0.2703
     25 P          22.5245   74.0870   -1.3051 P.3     1  UNL1        0.2208
     26 O          21.3012   74.3841   -2.3207 O.3     1  UNL1       -0.4371
     27 O          23.6032   75.1321   -1.3111 O.2     1  UNL1       -0.5170
     28 O          21.8196   73.8649    0.1294 O.3     1  UNL1       -0.2858
     29 O          21.3964   75.8910    1.2762 O.3     1  UNL1       -0.3226
     30 O          20.4621   73.0464    4.1598 O.3     1  UNL1       -0.3794
     31 O          22.7900   72.7007    2.4372 O.3     1  UNL1       -0.3775
     32 O          20.2124   75.7840    3.8888 O.3     1  UNL1       -0.3792
     33 C          20.5846   73.6281    2.8648 C.3     1  UNL1        0.1718
     34 C          22.0554   73.9155    2.5450 C.3     1  UNL1        0.1968
     35 C          19.7766   74.9281    2.8274 C.3     1  UNL1        0.1723
     36 C          22.1831   74.6960    1.2309 C.3     1  UNL1        0.2706
     37 C          20.0094   75.6389    1.4960 C.3     1  UNL1        0.1830
     38 H          19.5168   72.8843    4.3203 H       1  UNL1        0.2105
     39 H          23.7100   72.9320    2.2253 H       1  UNL1        0.2106
     40 H          21.0818   76.1498    3.6533 H       1  UNL1        0.2106
     41 O          18.1581   76.9361    2.1233 O.co2   1  UNL1       -0.5466
     42 O          19.7970   77.9760    0.9277 O.co2   1  UNL1       -0.5466
     43 C          19.3421   76.9771    1.4660 C.2     1  UNL1        0.0799
@<TRIPOS>UNITY_ATOM_ATTR
41 1
charge -1
@<TRIPOS>BOND
     1     1     4    1
     2     1    24    1
     3     1     2    1
     4     1     3    2
     5    25    28    1
     6    25    24    1
     7    25    26    1
     8    25    27    2
     9     6    11    1
    10     6    12    1
    11    29    36    1
    12    29    37    1
    13     7     9    1
    14     7    13    1
    15     8    10    1
    16     8    14    1
    17     4     5    1
    18    28    36    1
    19    30    33    1
    20    30    38    1
    21    31    34    1
    22    31    39    1
    23    32    35    1
    24    32    40    1
    25    41    43   ar
    26    15    19    2
    27    42    43   ar
    28    16    22    2
    29    17    12    1
    30    17    19   ar
    31    17    20   ar
    32    18    19   ar
    33    18    22   ar
    34    18    23    1
    35     9    10    1
    36     9    11    1
    37    10    12    1
    38    11     5    1
    39    33    34    1
    40    33    35    1
    41    34    36    1
    42    35    37    1
    43    37    43    1
    44    20    21   ar
    45    21    22   ar
@<TRIPOS>MOLECULE
UDP-glaA
 43 45 0 0 0
SMALL
GASTEIGER

@<TRIPOS>ATOM
      1 P          22.5134   73.1150   -4.6432 P.3     1  UNL1        0.2189
      2 O          22.7200   73.8583   -6.0652 O.3     1  UNL1       -0.4371
      3 O          23.7340   72.4274   -4.1052 O.2     1  UNL1       -0.5170
      4 O          21.2221   72.1709   -4.8808 O.3     1  UNL1       -0.3112
      5 C          20.6873   71.4636   -3.7749 C.3     1  UNL1        0.1811
      6 O          18.7210   72.2569   -4.9057 O.3     1  UNL1       -0.3308
      7 O          17.1709   71.1555   -2.5871 O.3     1  UNL1       -0.3794
      8 O          16.8325   69.2368   -4.4949 O.3     1  UNL1       -0.3779
      9 C          18.3466   70.6421   -3.2131 C.3     1  UNL1        0.1713
     10 C          18.0022   70.0267   -4.5529 C.3     1  UNL1        0.1895
     11 C          19.2167   71.8242   -3.6196 C.3     1  UNL1        0.1764
     12 C          17.8343   71.2552   -5.4308 C.3     1  UNL1        0.2383
     13 H          17.4456   71.5733   -1.7531 H       1  UNL1        0.2105
     14 H          16.9825   68.5397   -3.8333 H       1  UNL1        0.2106
     15 O          16.0011   70.3959   -7.3997 O.2     1  UNL1       -0.2464
     16 O          19.2601   70.3078  -10.6569 O.2     1  UNL1       -0.2670
     17 N          18.1763   71.0006   -6.8011 N.ar    1  UNL1       -0.2551
     18 N          17.6253   70.3521   -9.0202 N.ar    1  UNL1       -0.2743
     19 C          17.1808   70.5714   -7.7097 C.ar    1  UNL1        0.3323
     20 C          19.4863   71.1764   -7.2327 C.ar    1  UNL1        0.0869
     21 C          19.8942   70.9636   -8.4858 C.ar    1  UNL1        0.0795
     22 C          18.9171   70.5129   -9.4966 C.ar    1  UNL1        0.2626
     23 H          16.9268   70.0424   -9.6906 H       1  UNL1        0.1734
     24 O          21.9332   74.2932   -3.6995 O.3     1  UNL1       -0.2703
     25 P          22.3370   74.7479   -2.2019 P.3     1  UNL1        0.2208
     26 O          21.1852   75.8155   -1.8150 O.3     1  UNL1       -0.4371
     27 O          23.7380   75.2739   -2.0746 O.2     1  UNL1       -0.5170
     28 O          22.0233   73.4581   -1.2843 O.3     1  UNL1       -0.2858
     29 O          22.7979   73.6080    0.9466 O.3     1  UNL1       -0.3226
     30 O          21.7112   69.6053    0.6689 O.3     1  UNL1       -0.3794
     31 O          23.0878   70.9234   -1.5387 O.3     1  UNL1       -0.3775
     32 O          22.4993   71.3347    2.6734 O.3     1  UNL1       -0.3792
     33 C          21.6652   71.0092    0.4299 C.3     1  UNL1        0.1718
     34 C          22.9629   71.4810   -0.2348 C.3     1  UNL1        0.1968
     35 C          21.4673   71.7326    1.7648 C.3     1  UNL1        0.1723
     36 C          22.9945   73.0109   -0.3394 C.3     1  UNL1        0.2706
     37 C          21.5575   73.2417    1.5490 C.3     1  UNL1        0.1830
     38 H          20.8729   69.3520    1.0916 H       1  UNL1        0.2105
     39 H          23.9164   71.2568   -1.9222 H       1  UNL1        0.2106
     40 H          23.3303   71.7605    2.4026 H       1  UNL1        0.2106
     41 O          20.5629   73.4459    3.6640 O.co2   1  UNL1       -0.5466
     42 O          22.1985   74.9439    3.1369 O.co2   1  UNL1       -0.5466
     43 C          21.4992   73.9844    2.8459 C.2     1  UNL1        0.0799
@<TRIPOS>UNITY_ATOM_ATTR
41 1
charge -1
@<TRIPOS>BOND
     1     1     4    1
     2     1    24    1
     3     1     2    1
     4     1     3    2
     5    25    28    1
     6    25    24    1
     7    25    26    1
     8    25    27    2
     9     6    11    1
    10     6    12    1
    11    29    36    1
    12    29    37    1
    13     7     9    1
    14     7    13    1
    15     8    10    1
    16     8    14    1
    17     4     5    1
    18    28    36    1
    19    30    33    1
    20    30    38    1
    21    31    34    1
    22    31    39    1
    23    32    35    1
    24    32    40    1
    25    41    43   ar
    26    15    19    2
    27    42    43   ar
    28    16    22    2
    29    17    12    1
    30    17    19   ar
    31    17    20   ar
    32    18    19   ar
    33    18    22   ar
    34    18    23    1
    35     9    10    1
    36     9    11    1
    37    10    12    1
    38    11     5    1
    39    33    34    1
    40    33    35    1
    41    34    36    1
    42    35    37    1
    43    37    43    1
    44    20    21   ar
    45    21    22   ar
@<TRIPOS>MOLECULE
UDP-glaA
 43 45 0 0 0
SMALL
GASTEIGER

@<TRIPOS>ATOM
      1 P          22.4018   73.1313   -4.2550 P.3     1  UNL1        0.2189
      2 O          23.8347   72.4136   -4.0333 O.3     1  UNL1       -0.4371
      3 O          21.9264   73.9652   -3.1015 O.2     1  UNL1       -0.5170
      4 O          21.4243   71.9213   -4.6976 O.3     1  UNL1       -0.3112
      5 C          20.8317   71.1246   -3.6860 C.3     1  UNL1        0.1811
      6 O          18.9034   72.0815   -4.7539 O.3     1  UNL1       -0.3308
      7 O          17.3142   70.9554   -2.4741 O.3     1  UNL1       -0.3794
      8 O          16.8511   69.1552   -4.4692 O.3     1  UNL1       -0.3779
      9 C          18.4535   70.4086   -3.1379 C.3     1  UNL1        0.1713
     10 C          18.0630   69.8803   -4.5021 C.3     1  UNL1        0.1895
     11 C          19.3852   71.5588   -3.4962 C.3     1  UNL1        0.1764
     12 C          17.9570   71.1581   -5.3170 C.3     1  UNL1        0.2383
     13 H          17.6192   71.3155   -1.6239 H       1  UNL1        0.2105
     14 H          16.9675   68.4190   -3.8442 H       1  UNL1        0.2106
     15 O          16.0745   70.4224   -7.2894 O.2     1  UNL1       -0.2464
     16 O          19.2804   70.3957  -10.6000 O.2     1  UNL1       -0.2670
     17 N          18.2720   70.9528   -6.7019 N.ar    1  UNL1       -0.2551
     18 N          17.6722   70.4091   -8.9366 N.ar    1  UNL1       -0.2743
     19 C          17.2531   70.5839   -7.6111 C.ar    1  UNL1        0.3323
     20 C          19.5790   71.1168   -7.1472 C.ar    1  UNL1        0.0869
     21 C          19.9626   70.9468   -8.4144 C.ar    1  UNL1        0.0795
     22 C          18.9600   70.5603   -9.4269 C.ar    1  UNL1        0.2626
     23 H          16.9566   70.1432   -9.6076 H       1  UNL1        0.1734
     24 O          22.6154   73.9485   -5.6340 O.3     1  UNL1       -0.2703
     25 P          23.0616   75.4789   -5.9013 P.3     1  UNL1        0.2208
     26 O          24.3303   75.6729   -4.9171 O.3     1  UNL1       -0.4371
     27 O          21.9635   76.4843   -5.7028 O.2     1  UNL1       -0.5170
     28 O          23.6943   75.4671   -7.3857 O.3     1  UNL1       -0.2858
     29 O          23.2598   76.8938   -9.2229 O.3     1  UNL1       -0.3226
     30 O          24.1467   73.2953  -11.1053 O.3     1  UNL1       -0.3794
     31 O          22.5118   73.3407   -8.6906 O.3     1  UNL1       -0.3775
     32 O          23.7239   75.9128  -11.8801 O.3     1  UNL1       -0.3792
     33 C          24.2088   74.3266  -10.1240 C.3     1  UNL1        0.1718
     34 C          22.8462   74.5009   -9.4450 C.3     1  UNL1        0.1968
     35 C          24.6260   75.6332  -10.8045 C.3     1  UNL1        0.1723
     36 C          22.8557   75.7186   -8.5126 C.3     1  UNL1        0.2706
     37 C          24.5606   76.7797   -9.7978 C.3     1  UNL1        0.1830
     38 H          25.0279   73.2219  -11.5099 H       1  UNL1        0.2105
     39 H          21.6488   73.5010   -8.2730 H       1  UNL1        0.2106
     40 H          22.8784   76.2115  -11.5044 H       1  UNL1        0.2106
     41 O          23.6777   78.7041  -10.8083 O.co2   1  UNL1       -0.5466
     42 O          25.9469   78.5701  -10.6359 O.co2   1  UNL1       -0.5466
     43 C          24.8349   78.0973  -10.4504 C.2     1  UNL1        0.0799
@<TRIPOS>UNITY_ATOM_ATTR
41 1
charge -1
@<TRIPOS>BOND
     1     1     4    1
     2     1    24    1
     3     1     2    1
     4     1     3    2
     5    25    28    1
     6    25    24    1
     7    25    26    1
     8    25    27    2
     9     6    11    1
    10     6    12    1
    11    29    36    1
    12    29    37    1
    13     7     9    1
    14     7    13    1
    15     8    10    1
    16     8    14    1
    17     4     5    1
    18    28    36    1
    19    30    33    1
    20    30    38    1
    21    31    34    1
    22    31    39    1
    23    32    35    1
    24    32    40    1
    25    41    43   ar
    26    15    19    2
    27    42    43   ar
    28    16    22    2
    29    17    12    1
    30    17    19   ar
    31    17    20   ar
    32    18    19   ar
    33    18    22   ar
    34    18    23    1
    35     9    10    1
    36     9    11    1
    37    10    12    1
    38    11     5    1
    39    33    34    1
    40    33    35    1
    41    34    36    1
    42    35    37    1
    43    37    43    1
    44    20    21   ar
    45    21    22   ar
@<TRIPOS>MOLECULE
UDP-glaA
 43 45 0 0 0
SMALL
GASTEIGER

@<TRIPOS>ATOM
      1 P          21.6334   73.4845   -5.7197 P.3     1  UNL1        0.2189
      2 O          21.1151   74.9392   -6.2020 O.3     1  UNL1       -0.4371
      3 O          22.6140   72.8236   -6.6437 O.2     1  UNL1       -0.5170
      4 O          20.2714   72.6605   -5.4341 O.3     1  UNL1       -0.3112
      5 C          20.3705   71.3571   -4.8860 C.3     1  UNL1        0.1811
      6 O          18.2065   72.0917   -4.1432 O.3     1  UNL1       -0.3308
      7 O          18.0901   69.5444   -2.5656 O.3     1  UNL1       -0.3794
      8 O          16.5476   68.9695   -4.7395 O.3     1  UNL1       -0.3779
      9 C          18.6593   69.7846   -3.8524 C.3     1  UNL1        0.1713
     10 C          17.5670   69.9358   -4.8900 C.3     1  UNL1        0.1895
     11 C          19.2808   71.1750   -3.8390 C.3     1  UNL1        0.1764
     12 C          17.0754   71.3490   -4.6273 C.3     1  UNL1        0.2383
     13 H          18.8235   69.4937   -1.9291 H       1  UNL1        0.2105
     14 H          16.9623   68.0927   -4.8132 H       1  UNL1        0.2106
     15 O          17.6784   70.5217   -7.2592 O.2     1  UNL1       -0.2464
     16 O          15.0888   73.8612   -9.0977 O.2     1  UNL1       -0.2670
     17 N          16.5722   71.9835   -5.8119 N.ar    1  UNL1       -0.2551
     18 N          16.3889   72.1855   -8.1730 N.ar    1  UNL1       -0.2743
     19 C          16.9365   71.4904   -7.0866 C.ar    1  UNL1        0.3323
     20 C          15.7272   73.0825   -5.7040 C.ar    1  UNL1        0.0869
     21 C          15.2129   73.7341   -6.7494 C.ar    1  UNL1        0.0795
     22 C          15.5446   73.2835   -8.1156 C.ar    1  UNL1        0.2626
     23 H          16.6377   71.8489   -9.0992 H       1  UNL1        0.1734
     24 O          22.1998   73.7762   -4.2333 O.3     1  UNL1       -0.2703
     25 P          23.4322   73.1183   -3.4203 P.3     1  UNL1        0.2208
     26 O          24.7152   73.9412   -3.9614 O.3     1  UNL1       -0.4371
     27 O          23.5433   71.6280   -3.5701 O.2     1  UNL1       -0.5170
     28 O          23.2349   73.6226   -1.9002 O.3     1  UNL1       -0.2858
     29 O          21.4644   72.2369   -1.1622 O.3     1  UNL1       -0.3226
     30 O          22.6614   74.0752    2.3687 O.3     1  UNL1       -0.3794
     31 O          22.5033   75.5969   -0.1143 O.3     1  UNL1       -0.3775
     32 O          20.9450   72.0326    1.6533 O.3     1  UNL1       -0.3792
     33 C          22.7785   73.4942    1.0729 C.3     1  UNL1        0.1718
     34 C          21.9587   74.2923    0.0533 C.3     1  UNL1        0.1968
     35 C          22.2777   72.0484    1.1312 C.3     1  UNL1        0.1723
     36 C          21.9388   73.5798   -1.3048 C.3     1  UNL1        0.2706
     37 C          22.2616   71.4537   -0.2753 C.3     1  UNL1        0.1830
     38 H          23.1928   73.5375    2.9803 H       1  UNL1        0.2105
     39 H          21.9590   76.0596   -0.7734 H       1  UNL1        0.2106
     40 H          20.3408   72.3650    0.9679 H       1  UNL1        0.2106
     41 O          22.1388   69.3432    0.7419 O.co2   1  UNL1       -0.5466
     42 O          20.8384   69.6858   -1.0990 O.co2   1  UNL1       -0.5466
     43 C          21.6572   70.0857   -0.2840 C.2     1  UNL1        0.0799
@<TRIPOS>UNITY_ATOM_ATTR
41 1
charge -1
@<TRIPOS>BOND
     1     1     4    1
     2     1    24    1
     3     1     2    1
     4     1     3    2
     5    25    28    1
     6    25    24    1
     7    25    26    1
     8    25    27    2
     9     6    11    1
    10     6    12    1
    11    29    36    1
    12    29    37    1
    13     7     9    1
    14     7    13    1
    15     8    10    1
    16     8    14    1
    17     4     5    1
    18    28    36    1
    19    30    33    1
    20    30    38    1
    21    31    34    1
    22    31    39    1
    23    32    35    1
    24    32    40    1
    25    41    43   ar
    26    15    19    2
    27    42    43   ar
    28    16    22    2
    29    17    12    1
    30    17    19   ar
    31    17    20   ar
    32    18    19   ar
    33    18    22   ar
    34    18    23    1
    35     9    10    1
    36     9    11    1
    37    10    12    1
    38    11     5    1
    39    33    34    1
    40    33    35    1
    41    34    36    1
    42    35    37    1
    43    37    43    1
    44    20    21   ar
    45    21    22   ar
@<TRIPOS>MOLECULE
UDP-glaA
 43 45 0 0 0
SMALL
GASTEIGER

@<TRIPOS>ATOM
      1 P          22.0085   74.0785   -6.1632 P.3     1  UNL1        0.2189
      2 O          22.3011   75.2887   -7.1963 O.3     1  UNL1       -0.4371
      3 O          22.7873   72.8223   -6.4230 O.2     1  UNL1       -0.5170
      4 O          20.3987   73.9254   -6.1881 O.3     1  UNL1       -0.3112
      5 C          19.6671   74.6234   -7.1815 C.3     1  UNL1        0.1811
      6 O          19.5402   72.3186   -7.8494 O.3     1  UNL1       -0.3308
      7 O          17.8333   73.2664  -10.1253 O.3     1  UNL1       -0.3794
      8 O          15.9920   72.2933   -8.3651 O.3     1  UNL1       -0.3779
      9 C          17.8960   73.7464   -8.7824 C.3     1  UNL1        0.1713
     10 C          17.2146   72.7727   -7.8443 C.3     1  UNL1        0.1895
     11 C          19.3461   73.6695   -8.3233 C.3     1  UNL1        0.1764
     12 C          18.2607   71.6793   -7.7097 C.3     1  UNL1        0.2383
     13 H          18.3150   73.9011  -10.6827 H       1  UNL1        0.2105
     14 H          15.4196   73.0635   -8.5242 H       1  UNL1        0.2106
     15 O          16.1955   69.9270   -6.9099 O.2     1  UNL1       -0.2464
     16 O          18.1476   69.2098   -2.7974 O.2     1  UNL1       -0.2670
     17 N          18.2043   71.0204   -6.4361 N.ar    1  UNL1       -0.2551
     18 N          17.1687   69.5714   -4.8624 N.ar    1  UNL1       -0.2743
     19 C          17.1230   70.1605   -6.1328 C.ar    1  UNL1        0.3323
     20 C          19.2133   71.2292   -5.5024 C.ar    1  UNL1        0.0869
     21 C          19.2428   70.6597   -4.2955 C.ar    1  UNL1        0.0795
     22 C          18.1505   69.7487   -3.8999 C.ar    1  UNL1        0.2626
     23 H          16.4012   68.9498   -4.6223 H       1  UNL1        0.1734
     24 O          22.2864   74.7573   -4.7219 O.3     1  UNL1       -0.2703
     25 P          23.2996   74.3431   -3.5326 P.3     1  UNL1        0.2208
     26 O          23.4460   75.7083   -2.6776 O.3     1  UNL1       -0.4371
     27 O          24.6025   73.7656   -4.0065 O.2     1  UNL1       -0.5170
     28 O          22.4391   73.3590   -2.5865 O.3     1  UNL1       -0.2858
     29 O          22.9985   73.0180   -0.3127 O.3     1  UNL1       -0.3226
     30 O          20.6714   69.6764   -1.1476 O.3     1  UNL1       -0.3794
     31 O          22.6165   70.6502   -3.0903 O.3     1  UNL1       -0.3775
     32 O          21.7923   70.8289    1.0985 O.3     1  UNL1       -0.3792
     33 C          21.1198   71.0273   -1.2130 C.3     1  UNL1        0.1718
     34 C          22.5586   71.0881   -1.7369 C.3     1  UNL1        0.1968
     35 C          21.0457   71.6421    0.1873 C.3     1  UNL1        0.1723
     36 C          23.1087   72.5171   -1.6491 C.3     1  UNL1        0.2706
     37 C          21.6547   73.0423    0.1660 C.3     1  UNL1        0.1830
     38 H          19.7597   69.6859   -0.8095 H       1  UNL1        0.2105
     39 H          23.5419   70.7151   -3.3803 H       1  UNL1        0.2106
     40 H          22.7399   70.9684    0.9317 H       1  UNL1        0.2106
     41 O          22.7691   74.4839    1.6437 O.co2   1  UNL1       -0.5466
     42 O          20.9409   73.3843    2.4470 O.co2   1  UNL1       -0.5466
     43 C          21.7216   73.6310    1.5393 C.2     1  UNL1        0.0799
@<TRIPOS>UNITY_ATOM_ATTR
41 1
charge -1
@<TRIPOS>BOND
     1     1     4    1
     2     1    24    1
     3     1     2    1
     4     1     3    2
     5    25    28    1
     6    25    24    1
     7    25    26    1
     8    25    27    2
     9     6    11    1
    10     6    12    1
    11    29    36    1
    12    29    37    1
    13     7     9    1
    14     7    13    1
    15     8    10    1
    16     8    14    1
    17     4     5    1
    18    28    36    1
    19    30    33    1
    20    30    38    1
    21    31    34    1
    22    31    39    1
    23    32    35    1
    24    32    40    1
    25    41    43   ar
    26    15    19    2
    27    42    43   ar
    28    16    22    2
    29    17    12    1
    30    17    19   ar
    31    17    20   ar
    32    18    19   ar
    33    18    22   ar
    34    18    23    1
    35     9    10    1
    36     9    11    1
    37    10    12    1
    38    11     5    1
    39    33    34    1
    40    33    35    1
    41    34    36    1
    42    35    37    1
    43    37    43    1
    44    20    21   ar
    45    21    22   ar
@<TRIPOS>MOLECULE
UDP-glaA
 43 45 0 0 0
SMALL
GASTEIGER

@<TRIPOS>ATOM
      1 P          22.6532   73.9504   -4.9463 P.3     1  UNL1        0.2189
      2 O          23.4608   75.1134   -5.7290 O.3     1  UNL1       -0.4371
      3 O          23.4837   72.7702   -4.5347 O.2     1  UNL1       -0.5170
      4 O          21.4011   73.6246   -5.9167 O.3     1  UNL1       -0.3112
      5 C          21.6536   72.9886   -7.1580 C.3     1  UNL1        0.1811
      6 O          19.3903   72.2218   -6.9051 O.3     1  UNL1       -0.3308
      7 O          20.1537   69.9555   -8.7141 O.3     1  UNL1       -0.3794
      8 O          18.8212   71.6375  -10.3966 O.3     1  UNL1       -0.3779
      9 C          20.5771   71.3184   -8.7457 C.3     1  UNL1        0.1713
     10 C          19.4661   72.2014   -9.2733 C.3     1  UNL1        0.1895
     11 C          20.7126   71.8016   -7.3077 C.3     1  UNL1        0.1764
     12 C          18.5491   72.3099   -8.0669 C.3     1  UNL1        0.2383
     13 H          20.8815   69.4347   -8.3337 H       1  UNL1        0.2105
     14 H          19.4963   71.5000  -11.0833 H       1  UNL1        0.2106
     15 O          15.7337   72.5302   -8.0426 O.2     1  UNL1       -0.2464
     16 O          15.9123   77.1341   -7.9360 O.2     1  UNL1       -0.2670
     17 N          17.8334   73.5532   -8.0323 N.ar    1  UNL1       -0.2551
     18 N          15.8245   74.8226   -7.9900 N.ar    1  UNL1       -0.2743
     19 C          16.4190   73.5543   -8.0237 C.ar    1  UNL1        0.3323
     20 C          18.5325   74.7549   -8.0076 C.ar    1  UNL1        0.0869
     21 C          17.9512   75.9561   -7.9752 C.ar    1  UNL1        0.0795
     22 C          16.4776   76.0452   -7.9650 C.ar    1  UNL1        0.2626
     23 H          14.8084   74.8477   -7.9838 H       1  UNL1        0.1734
     24 O          21.9645   74.7496   -3.7207 O.3     1  UNL1       -0.2703
     25 P          20.7243   74.3557   -2.7618 P.3     1  UNL1        0.2208
     26 O          20.3329   72.8657   -3.2546 O.3     1  UNL1       -0.4371
     27 O          19.5875   75.3369   -2.7907 O.2     1  UNL1       -0.5170
     28 O          21.3851   74.1437   -1.3050 O.3     1  UNL1       -0.2858
     29 O          20.5683   72.2051   -0.2214 O.3     1  UNL1       -0.3226
     30 O          22.8575   73.9726    2.7643 O.3     1  UNL1       -0.3794
     31 O          21.1716   75.6019    1.0297 O.3     1  UNL1       -0.3775
     32 O          21.5371   71.5731    2.4055 O.3     1  UNL1       -0.3792
     33 C          22.4654   73.5879    1.4496 C.3     1  UNL1        0.1718
     34 C          21.0956   74.1822    1.1050 C.3     1  UNL1        0.1968
     35 C          22.4065   72.0595    1.3777 C.3     1  UNL1        0.1723
     36 C          20.5883   73.6363   -0.2355 C.3     1  UNL1        0.2706
     37 C          21.8516   71.6306    0.0211 C.3     1  UNL1        0.1830
     38 H          23.7264   73.5729    2.9401 H       1  UNL1        0.2105
     39 H          20.2862   75.9313    0.8007 H       1  UNL1        0.2106
     40 H          20.6188   71.7632    2.1490 H       1  UNL1        0.2106
     41 O          20.8830   69.8172   -1.1090 O.co2   1  UNL1       -0.5466
     42 O          22.1244   69.3429    0.7433 O.co2   1  UNL1       -0.5466
     43 C          21.6547   70.1495   -0.0461 C.2     1  UNL1        0.0799
@<TRIPOS>UNITY_ATOM_ATTR
41 1
charge -1
@<TRIPOS>BOND
     1     1     4    1
     2     1    24    1
     3     1     2    1
     4     1     3    2
     5    25    28    1
     6    25    24    1
     7    25    26    1
     8    25    27    2
     9     6    11    1
    10     6    12    1
    11    29    36    1
    12    29    37    1
    13     7     9    1
    14     7    13    1
    15     8    10    1
    16     8    14    1
    17     4     5    1
    18    28    36    1
    19    30    33    1
    20    30    38    1
    21    31    34    1
    22    31    39    1
    23    32    35    1
    24    32    40    1
    25    41    43   ar
    26    15    19    2
    27    42    43   ar
    28    16    22    2
    29    17    12    1
    30    17    19   ar
    31    17    20   ar
    32    18    19   ar
    33    18    22   ar
    34    18    23    1
    35     9    10    1
    36     9    11    1
    37    10    12    1
    38    11     5    1
    39    33    34    1
    40    33    35    1
    41    34    36    1
    42    35    37    1
    43    37    43    1
    44    20    21   ar
    45    21    22   ar
@<TRIPOS>MOLECULE
UDP-glaA
 43 45 0 0 0
SMALL
GASTEIGER

@<TRIPOS>ATOM
      1 P          19.9094   70.9051   -4.1421 P.3     1  UNL1        0.2189
      2 O          20.5005   69.5909   -3.4067 O.3     1  UNL1       -0.4371
      3 O          18.7734   71.5744   -3.4255 O.2     1  UNL1       -0.5170
      4 O          19.5925   70.4009   -5.6457 O.3     1  UNL1       -0.3112
      5 C          19.8474   71.2844   -6.7244 C.3     1  UNL1        0.1811
      6 O          17.6117   70.9715   -7.5479 O.3     1  UNL1       -0.3308
      7 O          18.8153   71.0282  -10.2937 O.3     1  UNL1       -0.3794
      8 O          17.7887   73.5418  -10.0415 O.3     1  UNL1       -0.3779
      9 C          19.1828   71.7703   -9.1309 C.3     1  UNL1        0.1713
     10 C          18.1688   72.8624   -8.8627 C.3     1  UNL1        0.1895
     11 C          19.0037   70.8646   -7.9196 C.3     1  UNL1        0.1764
     12 C          17.0219   72.0829   -8.2423 C.3     1  UNL1        0.2383
     13 H          19.4702   70.3177  -10.4030 H       1  UNL1        0.2105
     14 H          18.5943   73.9200  -10.4340 H       1  UNL1        0.2106
     15 O          16.3178   71.2333   -5.6427 O.2     1  UNL1       -0.2464
     16 O          14.1178   75.1831   -4.7499 O.2     1  UNL1       -0.2670
     17 N          16.2662   72.8689   -7.3093 N.ar    1  UNL1       -0.2551
     18 N          15.2223   73.2005   -5.2001 N.ar    1  UNL1       -0.2743
     19 C          15.9650   72.3491   -6.0288 C.ar    1  UNL1        0.3323
     20 C          15.8314   74.1404   -7.6666 C.ar    1  UNL1        0.0869
     21 C          15.1245   74.9401   -6.8649 C.ar    1  UNL1        0.0795
     22 C          14.7672   74.4725   -5.5110 C.ar    1  UNL1        0.2626
     23 H          14.9936   72.8474   -4.2748 H       1  UNL1        0.1734
     24 O          21.2207   71.8310   -4.3385 O.3     1  UNL1       -0.2703
     25 P          22.6000   71.9074   -3.4992 P.3     1  UNL1        0.2208
     26 O          23.5463   72.8371   -4.4245 O.3     1  UNL1       -0.4371
     27 O          23.1888   70.5684   -3.1586 O.2     1  UNL1       -0.5170
     28 O          22.2498   72.8266   -2.2200 O.3     1  UNL1       -0.2858
     29 O          21.4261   71.3085   -0.6024 O.3     1  UNL1       -0.3226
     30 O          21.4740   74.8893    1.5083 O.3     1  UNL1       -0.3794
     31 O          20.5912   74.8191   -1.2705 O.3     1  UNL1       -0.3775
     32 O          21.0498   72.2230    2.0922 O.3     1  UNL1       -0.3792
     33 C          21.8869   73.9006    0.5691 C.3     1  UNL1        0.1718
     34 C          20.7871   73.6581   -0.4701 C.3     1  UNL1        0.1968
     35 C          22.1938   72.6019    1.3198 C.3     1  UNL1        0.1723
     36 C          21.1501   72.4781   -1.3801 C.3     1  UNL1        0.2706
     37 C          22.5007   71.4905    0.3184 C.3     1  UNL1        0.1830
     38 H          22.1979   75.0082    2.1465 H       1  UNL1        0.2105
     39 H          19.8949   74.6154   -1.9174 H       1  UNL1        0.2106
     40 H          20.3690   71.8809    1.4884 H       1  UNL1        0.2106
     41 O          21.8397   69.2454    0.4810 O.co2   1  UNL1       -0.5466
     42 O          23.4741   69.9521    1.9045 O.co2   1  UNL1       -0.5466
     43 C          22.6796   70.1722    1.0019 C.2     1  UNL1        0.0799
@<TRIPOS>UNITY_ATOM_ATTR
41 1
charge -1
@<TRIPOS>BOND
     1     1     4    1
     2     1    24    1
     3     1     2    1
     4     1     3    2
     5    25    28    1
     6    25    24    1
     7    25    26    1
     8    25    27    2
     9     6    11    1
    10     6    12    1
    11    29    36    1
    12    29    37    1
    13     7     9    1
    14     7    13    1
    15     8    10    1
    16     8    14    1
    17     4     5    1
    18    28    36    1
    19    30    33    1
    20    30    38    1
    21    31    34    1
    22    31    39    1
    23    32    35    1
    24    32    40    1
    25    41    43   ar
    26    15    19    2
    27    42    43   ar
    28    16    22    2
    29    17    12    1
    30    17    19   ar
    31    17    20   ar
    32    18    19   ar
    33    18    22   ar
    34    18    23    1
    35     9    10    1
    36     9    11    1
    37    10    12    1
    38    11     5    1
    39    33    34    1
    40    33    35    1
    41    34    36    1
    42    35    37    1
    43    37    43    1
    44    20    21   ar
    45    21    22   ar
@<TRIPOS>MOLECULE
UDP-glaA
 43 45 0 0 0
SMALL
GASTEIGER

@<TRIPOS>ATOM
      1 P          22.1664   74.1904   -5.2488 P.3     1  UNL1        0.2189
      2 O          21.3324   74.7987   -4.0031 O.3     1  UNL1       -0.4371
      3 O          23.2148   75.1030   -5.8146 O.2     1  UNL1       -0.5170
      4 O          21.0225   73.7064   -6.2845 O.3     1  UNL1       -0.3112
      5 C          21.4141   72.9698   -7.4305 C.3     1  UNL1        0.1811
      6 O          19.3085   71.9045   -6.9767 O.3     1  UNL1       -0.3308
      7 O          20.2635   69.6820   -8.7486 O.3     1  UNL1       -0.3794
      8 O          18.5880   71.0736  -10.3893 O.3     1  UNL1       -0.3779
      9 C          20.4823   71.0878   -8.8655 C.3     1  UNL1        0.1713
     10 C          19.2213   71.7778   -9.3412 C.3     1  UNL1        0.1895
     11 C          20.6464   71.6559   -7.4619 C.3     1  UNL1        0.1764
     12 C          18.3845   71.8152   -8.0737 C.3     1  UNL1        0.2383
     13 H          21.0836   69.2887   -8.4047 H       1  UNL1        0.2105
     14 H          19.2264   70.9991  -11.1194 H       1  UNL1        0.2106
     15 O          19.0759   74.4130   -8.9390 O.2     1  UNL1       -0.2464
     16 O          14.9127   76.0752   -7.8697 O.2     1  UNL1       -0.2670
     17 N          17.5009   72.9452   -8.0334 N.ar    1  UNL1       -0.2551
     18 N          17.0025   75.2391   -8.4055 N.ar    1  UNL1       -0.2743
     19 C          17.9464   74.2072   -8.4913 C.ar    1  UNL1        0.3323
     20 C          16.2080   72.7970   -7.5437 C.ar    1  UNL1        0.0869
     21 C          15.3197   73.7905   -7.4688 C.ar    1  UNL1        0.0795
     22 C          15.7056   75.1403   -7.9258 C.ar    1  UNL1        0.2626
     23 H          17.3011   76.1554   -8.7286 H       1  UNL1        0.1734
     24 O          22.7347   72.7963   -4.6580 O.3     1  UNL1       -0.2703
     25 P          22.1187   71.7791   -3.5633 P.3     1  UNL1        0.2208
     26 O          23.3592   70.7960   -3.2308 O.3     1  UNL1       -0.4371
     27 O          20.8711   71.0732   -4.0118 O.2     1  UNL1       -0.5170
     28 O          21.9371   72.6724   -2.2317 O.3     1  UNL1       -0.2858
     29 O          21.2625   71.1943   -0.5114 O.3     1  UNL1       -0.3226
     30 O          21.4619   74.8305    1.4930 O.3     1  UNL1       -0.3794
     31 O          20.3499   74.6816   -1.1991 O.3     1  UNL1       -0.3775
     32 O          21.1069   72.1787    2.1803 O.3     1  UNL1       -0.3792
     33 C          21.8017   73.8189    0.5487 C.3     1  UNL1        0.1718
     34 C          20.6203   73.5435   -0.3877 C.3     1  UNL1        0.1968
     35 C          22.1795   72.5423    1.3049 C.3     1  UNL1        0.1723
     36 C          20.9141   72.3413   -1.2937 C.3     1  UNL1        0.2706
     37 C          22.4091   71.4059    0.3109 C.3     1  UNL1        0.1830
     38 H          22.2360   74.9699    2.0648 H       1  UNL1        0.2105
     39 H          19.6034   74.4573   -1.7797 H       1  UNL1        0.2106
     40 H          20.3802   71.8174    1.6449 H       1  UNL1        0.2106
     41 O          21.8490   69.1369    0.5151 O.co2   1  UNL1       -0.5466
     42 O          23.4683   69.9358    1.9067 O.co2   1  UNL1       -0.5466
     43 C          22.6539   70.1073    1.0113 C.2     1  UNL1        0.0799
@<TRIPOS>UNITY_ATOM_ATTR
41 1
charge -1
@<TRIPOS>BOND
     1     1     4    1
     2     1    24    1
     3     1     2    1
     4     1     3    2
     5    25    28    1
     6    25    24    1
     7    25    26    1
     8    25    27    2
     9     6    11    1
    10     6    12    1
    11    29    36    1
    12    29    37    1
    13     7     9    1
    14     7    13    1
    15     8    10    1
    16     8    14    1
    17     4     5    1
    18    28    36    1
    19    30    33    1
    20    30    38    1
    21    31    34    1
    22    31    39    1
    23    32    35    1
    24    32    40    1
    25    41    43   ar
    26    15    19    2
    27    42    43   ar
    28    16    22    2
    29    17    12    1
    30    17    19   ar
    31    17    20   ar
    32    18    19   ar
    33    18    22   ar
    34    18    23    1
    35     9    10    1
    36     9    11    1
    37    10    12    1
    38    11     5    1
    39    33    34    1
    40    33    35    1
    41    34    36    1
    42    35    37    1
    43    37    43    1
    44    20    21   ar
    45    21    22   ar
@<TRIPOS>MOLECULE
UDP-glaA
 43 45 0 0 0
SMALL
GASTEIGER

@<TRIPOS>ATOM
      1 P          16.3608   72.5258   -5.8161 P.3     1  UNL1        0.2189
      2 O          16.2430   71.1664   -6.6854 O.3     1  UNL1       -0.4371
      3 O          15.1073   72.9265   -5.0949 O.2     1  UNL1       -0.5170
      4 O          16.9455   73.6094   -6.8647 O.3     1  UNL1       -0.3112
      5 C          16.0534   74.5551   -7.4296 C.3     1  UNL1        0.1811
      6 O          14.2515   73.9738   -8.9093 O.3     1  UNL1       -0.3308
      7 O          16.1889   74.4408  -11.1497 O.3     1  UNL1       -0.3794
      8 O          14.7206   76.7386  -11.1434 O.3     1  UNL1       -0.3779
      9 C          16.0617   75.1315   -9.9069 C.3     1  UNL1        0.1713
     10 C          14.8432   76.0299   -9.9276 C.3     1  UNL1        0.1895
     11 C          15.6878   74.1118   -8.8391 C.3     1  UNL1        0.1764
     12 C          13.7142   75.0358   -9.7148 C.3     1  UNL1        0.2383
     13 H          16.9578   73.8502  -11.0757 H       1  UNL1        0.2105
     14 H          15.5296   77.2666  -11.2573 H       1  UNL1        0.2106
     15 O          11.1483   73.8643   -9.5777 O.2     1  UNL1       -0.2464
     16 O           9.4860   77.3591   -7.0754 O.2     1  UNL1       -0.2670
     17 N          12.5929   75.6172   -9.0338 N.ar    1  UNL1       -0.2551
     18 N          10.3221   75.6056   -8.3322 N.ar    1  UNL1       -0.2743
     19 C          11.3468   74.9479   -9.0254 C.ar    1  UNL1        0.3323
     20 C          12.7338   76.8382   -8.3836 C.ar    1  UNL1        0.0869
     21 C          11.7473   77.4521   -7.7266 C.ar    1  UNL1        0.0795
     22 C          10.4141   76.8204   -7.6707 C.ar    1  UNL1        0.2626
     23 H           9.4172   75.1431   -8.3134 H       1  UNL1        0.1734
     24 O          17.6269   72.2319   -4.8538 O.3     1  UNL1       -0.2703
     25 P          17.7012   71.8714   -3.2799 P.3     1  UNL1        0.2208
     26 O          17.2535   70.3179   -3.2336 O.3     1  UNL1       -0.4371
     27 O          16.8872   72.7777   -2.4013 O.2     1  UNL1       -0.5170
     28 O          19.2783   71.8523   -2.9388 O.3     1  UNL1       -0.2858
     29 O          21.1421   71.5177   -4.3579 O.3     1  UNL1       -0.3226
     30 O          22.4540   69.8418   -0.7872 O.3     1  UNL1       -0.3794
     31 O          19.7170   69.4226   -1.7032 O.3     1  UNL1       -0.3775
     32 O          23.5661   70.4653   -3.2376 O.3     1  UNL1       -0.3792
     33 C          21.7616   70.7355   -1.6546 C.3     1  UNL1        0.1718
     34 C          20.7509   69.9696   -2.5149 C.3     1  UNL1        0.1968
     35 C          22.7807   71.4450   -2.5505 C.3     1  UNL1        0.1723
     36 C          20.1252   70.8919   -3.5685 C.3     1  UNL1        0.2706
     37 C          22.0489   72.3002   -3.5826 C.3     1  UNL1        0.1830
     38 H          23.0831   70.3683   -0.2651 H       1  UNL1        0.2105
     39 H          19.0983   68.9568   -2.2906 H       1  UNL1        0.2106
     40 H          23.0193   70.0641   -3.9341 H       1  UNL1        0.2106
     41 O          24.1808   73.2025   -3.9632 O.co2   1  UNL1       -0.5466
     42 O          22.7570   73.1172   -5.7415 O.co2   1  UNL1       -0.5466
     43 C          23.0009   72.9103   -4.5616 C.2     1  UNL1        0.0799
@<TRIPOS>UNITY_ATOM_ATTR
41 1
charge -1
@<TRIPOS>BOND
     1     1     4    1
     2     1    24    1
     3     1     2    1
     4     1     3    2
     5    25    28    1
     6    25    24    1
     7    25    26    1
     8    25    27    2
     9     6    11    1
    10     6    12    1
    11    29    36    1
    12    29    37    1
    13     7     9    1
    14     7    13    1
    15     8    10    1
    16     8    14    1
    17     4     5    1
    18    28    36    1
    19    30    33    1
    20    30    38    1
    21    31    34    1
    22    31    39    1
    23    32    35    1
    24    32    40    1
    25    41    43   ar
    26    15    19    2
    27    42    43   ar
    28    16    22    2
    29    17    12    1
    30    17    19   ar
    31    17    20   ar
    32    18    19   ar
    33    18    22   ar
    34    18    23    1
    35     9    10    1
    36     9    11    1
    37    10    12    1
    38    11     5    1
    39    33    34    1
    40    33    35    1
    41    34    36    1
    42    35    37    1
    43    37    43    1
    44    20    21   ar
    45    21    22   ar
@<TRIPOS>MOLECULE
UDP-glaA
 43 45 0 0 0
SMALL
GASTEIGER

@<TRIPOS>ATOM
      1 P          20.7468   74.3168   -6.0038 P.3     1  UNL1        0.2189
      2 O          19.6074   74.6462   -4.9035 O.3     1  UNL1       -0.4371
      3 O          20.9075   75.3524   -7.0780 O.2     1  UNL1       -0.5170
      4 O          20.3775   72.8270   -6.5132 O.3     1  UNL1       -0.3112
      5 C          21.0916   72.2911   -7.6142 C.3     1  UNL1        0.1811
      6 O          18.9016   71.3082   -7.7248 O.3     1  UNL1       -0.3308
      7 O          19.4122   70.9561  -10.6585 O.3     1  UNL1       -0.3794
      8 O          17.8212   73.1698  -10.5924 O.3     1  UNL1       -0.3779
      9 C          19.8092   72.0204   -9.7940 C.3     1  UNL1        0.1713
     10 C          18.6207   72.8970   -9.4602 C.3     1  UNL1        0.1895
     11 C          20.1534   71.4199   -8.4373 C.3     1  UNL1        0.1764
     12 C          17.8942   72.0613   -8.4200 C.3     1  UNL1        0.2383
     13 H          20.1952   70.4006  -10.8128 H       1  UNL1        0.2105
     14 H          18.3871   73.6072  -11.2517 H       1  UNL1        0.2106
     15 O          16.2214   71.0301   -6.3918 O.2     1  UNL1       -0.2464
     16 O          15.1889   75.2471   -4.8458 O.2     1  UNL1       -0.2670
     17 N          17.1767   72.8667   -7.4735 N.ar    1  UNL1       -0.2551
     18 N          15.7080   73.1307   -5.6236 N.ar    1  UNL1       -0.2743
     19 C          16.3626   72.2500   -6.4948 C.ar    1  UNL1        0.3323
     20 C          17.2833   74.2522   -7.5206 C.ar    1  UNL1        0.0869
     21 C          16.6532   75.0782   -6.6825 C.ar    1  UNL1        0.0795
     22 C          15.7826   74.5149   -5.6316 C.ar    1  UNL1        0.2626
     23 H          15.1167   72.7096   -4.9121 H       1  UNL1        0.1734
     24 O          22.0651   74.0748   -5.0989 O.3     1  UNL1       -0.2703
     25 P          22.3519   73.0271   -3.9020 P.3     1  UNL1        0.2208
     26 O          22.2637   73.9469   -2.5746 O.3     1  UNL1       -0.4371
     27 O          23.6389   72.2662   -4.0447 O.2     1  UNL1       -0.5170
     28 O          21.0322   72.1002   -3.8450 O.3     1  UNL1       -0.2858
     29 O          19.3478   71.8183   -2.2071 O.3     1  UNL1       -0.3226
     30 O          19.7510   67.9652   -3.7139 O.3     1  UNL1       -0.3794
     31 O          22.1019   69.6265   -3.2456 O.3     1  UNL1       -0.3775
     32 O          18.0308   69.2767   -1.9961 O.3     1  UNL1       -0.3792
     33 C          19.7283   69.3899   -3.7110 C.3     1  UNL1        0.1718
     34 C          20.7996   69.9395   -2.7631 C.3     1  UNL1        0.1968
     35 C          18.3419   69.8621   -3.2647 C.3     1  UNL1        0.1723
     36 C          20.6706   71.4612   -2.6214 C.3     1  UNL1        0.2706
     37 C          18.3401   71.3822   -3.1181 C.3     1  UNL1        0.1830
     38 H          19.0570   67.6620   -4.3238 H       1  UNL1        0.2105
     39 H          22.7446   70.0015   -2.6202 H       1  UNL1        0.2106
     40 H          18.5597   69.7218   -1.3125 H       1  UNL1        0.2106
     41 O          16.0002   71.2119   -3.1115 O.co2   1  UNL1       -0.5466
     42 O          16.9327   72.7563   -1.7177 O.co2   1  UNL1       -0.5466
     43 C          17.0438   71.8765   -2.5593 C.2     1  UNL1        0.0799
@<TRIPOS>UNITY_ATOM_ATTR
41 1
charge -1
@<TRIPOS>BOND
     1     1     4    1
     2     1    24    1
     3     1     2    1
     4     1     3    2
     5    25    28    1
     6    25    24    1
     7    25    26    1
     8    25    27    2
     9     6    11    1
    10     6    12    1
    11    29    36    1
    12    29    37    1
    13     7     9    1
    14     7    13    1
    15     8    10    1
    16     8    14    1
    17     4     5    1
    18    28    36    1
    19    30    33    1
    20    30    38    1
    21    31    34    1
    22    31    39    1
    23    32    35    1
    24    32    40    1
    25    41    43   ar
    26    15    19    2
    27    42    43   ar
    28    16    22    2
    29    17    12    1
    30    17    19   ar
    31    17    20   ar
    32    18    19   ar
    33    18    22   ar
    34    18    23    1
    35     9    10    1
    36     9    11    1
    37    10    12    1
    38    11     5    1
    39    33    34    1
    40    33    35    1
    41    34    36    1
    42    35    37    1
    43    37    43    1
    44    20    21   ar
    45    21    22   ar
