
 OpenBabel04092510503D

 24 24  0  0  1  0  0  0  0  0999 V2000
    0.9742    0.0261    0.0664 C   0  0  0  0  0  0  0  0  0  0  0  0
    0.4901    1.0323    1.1142 C   0  0  2  0  0  0  0  0  0  0  0  0
   -1.0353    1.0445    1.2274 C   0  0  2  0  0  0  0  0  0  0  0  0
   -1.4775    2.1259    2.2299 C   0  0  1  0  0  0  0  0  0  0  0  0
   -0.8171    3.4873    1.9464 C   0  0  2  0  0  0  0  0  0  0  0  0
    0.6976    3.3222    1.6910 C   0  0  1  0  0  0  0  0  0  0  0  0
    0.9645    2.3272    0.7151 O   0  0  0  0  0  0  0  0  0  0  0  0
    1.2774    4.5281    1.2233 O   0  0  0  0  0  0  0  0  0  0  0  0
   -1.0646    4.3952    3.0295 O   0  0  0  0  0  0  0  0  0  0  0  0
   -2.9104    2.2473    2.2163 O   0  0  0  0  0  0  0  0  0  0  0  0
   -1.5184   -0.2446    1.6108 O   0  0  0  0  0  0  0  0  0  0  0  0
    2.4020    0.0584    0.0052 O   0  0  0  0  0  0  0  0  0  0  0  0
    0.5984    0.2801   -0.9305 H   0  0  0  0  0  0  0  0  0  0  0  0
    0.6690   -0.9951    0.3126 H   0  0  0  0  0  0  0  0  0  0  0  0
    0.9542    0.7693    2.0756 H   0  0  0  0  0  0  0  0  0  0  0  0
   -1.4813    1.2691    0.2509 H   0  0  0  0  0  0  0  0  0  0  0  0
   -1.2338    1.8070    3.2494 H   0  0  0  0  0  0  0  0  0  0  0  0
   -1.2890    3.9433    1.0686 H   0  0  0  0  0  0  0  0  0  0  0  0
    1.2182    3.0728    2.6238 H   0  0  0  0  0  0  0  0  0  0  0  0
    0.7478    4.8132    0.4607 H   0  0  0  0  0  0  0  0  0  0  0  0
   -0.7220    4.0050    3.8578 H   0  0  0  0  0  0  0  0  0  0  0  0
   -3.1899    2.5805    1.3474 H   0  0  0  0  0  0  0  0  0  0  0  0
   -1.5247   -0.3085    2.5827 H   0  0  0  0  0  0  0  0  0  0  0  0
    2.6411    0.9998   -0.1014 H   0  0  0  0  0  0  0  0  0  0  0  0
  1  2  1  0  0  0  0
  1 12  1  0  0  0  0
  1 13  1  0  0  0  0
  1 14  1  0  0  0  0
  2  3  1  0  0  0  0
  2  7  1  0  0  0  0
  2 15  1  1  0  0  0
  3  4  1  0  0  0  0
  3 11  1  0  0  0  0
  3 16  1  6  0  0  0
  4  5  1  0  0  0  0
  4 10  1  0  0  0  0
  4 17  1  1  0  0  0
  5  6  1  0  0  0  0
  5  9  1  0  0  0  0
  5 18  1  6  0  0  0
  6  7  1  0  0  0  0
  6  8  1  0  0  0  0
  6 19  1  1  0  0  0
  8 20  1  0  0  0  0
  9 21  1  0  0  0  0
 10 22  1  0  0  0  0
 11 23  1  0  0  0  0
 12 24  1  0  0  0  0
M  END
$$$$
