


 17 17  0  0  0  0  0  0  0  0999 V2000
    3.7995  -11.2339   12.0177 C   0  0  0  0  0  0  0  0  0  0  0  0
    3.2436  -11.8735   10.7442 C   0  0  0  0  0  0  0  0  0  0  0  0
    4.3821  -12.1041    9.7340 C   0  0  0  0  0  0  0  0  0  0  0  0
    5.5884  -12.8188   10.3697 C   0  0  0  0  0  0  0  0  0  0  0  0
    5.9534  -12.1807   11.7285 C   0  0  0  0  0  0  0  0  0  0  0  0
    4.8241  -12.0673   12.5804 O   0  0  0  0  0  0  0  0  0  0  0  0
    6.9188  -12.9544   12.4202 O   0  0  0  0  0  0  0  0  0  0  0  0
    6.7069  -12.8012    9.4712 O   0  0  0  0  0  0  0  0  0  0  0  0
    3.8906  -12.8491    8.6065 O   0  0  0  0  0  0  0  0  0  0  0  0
    2.2127  -11.0577   10.1841 O   0  0  0  0  0  0  0  0  0  0  0  0
    6.5730  -13.8612   12.4573 H   0  0  0  0  0  0  0  0  0  0  0  0
    6.9249  -11.8740    9.2509 H   0  0  0  0  0  0  0  0  0  0  0  0
    3.6344  -13.7380    8.9039 H   0  0  0  0  0  0  0  0  0  0  0  0
    2.6128  -10.4010    9.5863 H   0  0  0  0  0  0  0  0  0  0  0  0
    2.7160  -11.0592   13.0855 C   0  0  0  0  0  0  0  0  0  0  0  0
    1.7872  -10.0607   12.6567 O   0  0  0  0  0  0  0  0  0  0  0  0
    2.3280   -9.2869   12.4048 H   0  0  0  0  0  0  0  0  0  0  0  0
 15  1  1  0
 15 16  1  0
  1  2  1  0
  1  6  1  0
  2  3  1  0
  2 10  1  0
  3  4  1  0
  3  9  1  0
  4  5  1  0
  4  8  1  0
  5  6  1  0
  5  7  1  0
  7 11  1  0
  8 12  1  0
  9 13  1  0
 10 14  1  0
 16 17  1  0
M  END
> <minimizedAffinity>
-4.44740

> <CNNscore>
0.9694370627

> <CNNaffinity>
2.7589385509

> <CNN_VS>
2.6746172905

> <CNNaffinity_variance>
0.6572241187

$$$$



 17 17  0  0  0  0  0  0  0  0999 V2000
    4.8765  -12.0092   12.6698 C   0  0  0  0  0  0  0  0  0  0  0  0
    6.0466  -12.1817   11.6999 C   0  0  0  0  0  0  0  0  0  0  0  0
    5.5470  -12.7985   10.3808 C   0  0  0  0  0  0  0  0  0  0  0  0
    4.3181  -12.0592    9.8213 C   0  0  0  0  0  0  0  0  0  0  0  0
    3.2765  -11.8023   10.9330 C   0  0  0  0  0  0  0  0  0  0  0  0
    3.8591  -11.1907   12.0732 O   0  0  0  0  0  0  0  0  0  0  0  0
    2.2425  -10.9430   10.4840 O   0  0  0  0  0  0  0  0  0  0  0  0
    3.7448  -12.7995    8.7342 O   0  0  0  0  0  0  0  0  0  0  0  0
    6.6117  -12.8116    9.4142 O   0  0  0  0  0  0  0  0  0  0  0  0
    7.0712  -12.9840   12.2904 O   0  0  0  0  0  0  0  0  0  0  0  0
    2.6761  -10.1542   10.1192 H   0  0  0  0  0  0  0  0  0  0  0  0
    3.5032  -13.6930    9.0487 H   0  0  0  0  0  0  0  0  0  0  0  0
    6.8453  -11.8953    9.1907 H   0  0  0  0  0  0  0  0  0  0  0  0
    6.8860  -13.9233   12.1115 H   0  0  0  0  0  0  0  0  0  0  0  0
    5.3108  -11.3233   13.9681 C   0  0  0  0  0  0  0  0  0  0  0  0
    5.8374  -12.3029   14.8662 O   0  0  0  0  0  0  0  0  0  0  0  0
    5.1647  -13.0101   14.9105 H   0  0  0  0  0  0  0  0  0  0  0  0
 15  1  1  0
 15 16  1  0
  1  2  1  0
  1  6  1  0
  2  3  1  0
  2 10  1  0
  3  4  1  0
  3  9  1  0
  4  5  1  0
  4  8  1  0
  5  6  1  0
  5  7  1  0
  7 11  1  0
  8 12  1  0
  9 13  1  0
 10 14  1  0
 16 17  1  0
M  END
> <minimizedAffinity>
-4.20824

> <CNNscore>
0.9621676803

> <CNNaffinity>
2.8574578762

> <CNN_VS>
2.7493536472

> <CNNaffinity_variance>
0.4935273230

$$$$



 17 17  0  0  0  0  0  0  0  0999 V2000
    4.9807  -11.7346   12.8273 C   0  0  0  0  0  0  0  0  0  0  0  0
    3.5808  -11.6025   12.2250 C   0  0  0  0  0  0  0  0  0  0  0  0
    3.6839  -11.3605   10.7082 C   0  0  0  0  0  0  0  0  0  0  0  0
    4.6154  -12.3741   10.0191 C   0  0  0  0  0  0  0  0  0  0  0  0
    5.9320  -12.5386   10.8103 C   0  0  0  0  0  0  0  0  0  0  0  0
    5.6945  -12.8016   12.1844 O   0  0  0  0  0  0  0  0  0  0  0  0
    6.7050  -13.6160   10.3094 O   0  0  0  0  0  0  0  0  0  0  0  0
    4.8705  -11.9742    8.6649 O   0  0  0  0  0  0  0  0  0  0  0  0
    2.3730  -11.3972   10.1180 O   0  0  0  0  0  0  0  0  0  0  0  0
    2.8571  -10.5516   12.8683 O   0  0  0  0  0  0  0  0  0  0  0  0
    6.1212  -14.3920   10.2923 H   0  0  0  0  0  0  0  0  0  0  0  0
    5.2646  -11.0796    8.6651 H   0  0  0  0  0  0  0  0  0  0  0  0
    2.0134  -12.2956   10.2055 H   0  0  0  0  0  0  0  0  0  0  0  0
    3.0458   -9.7094   12.4169 H   0  0  0  0  0  0  0  0  0  0  0  0
    4.9277  -12.0574   14.3232 C   0  0  0  0  0  0  0  0  0  0  0  0
    4.8745  -10.8381   15.0675 O   0  0  0  0  0  0  0  0  0  0  0  0
    5.6099  -10.2901   14.7306 H   0  0  0  0  0  0  0  0  0  0  0  0
 15  1  1  0
 15 16  1  0
  1  2  1  0
  1  6  1  0
  2  3  1  0
  2 10  1  0
  3  4  1  0
  3  9  1  0
  4  5  1  0
  4  8  1  0
  5  6  1  0
  5  7  1  0
  7 11  1  0
  8 12  1  0
  9 13  1  0
 10 14  1  0
 16 17  1  0
M  END
> <minimizedAffinity>
-3.66704

> <CNNscore>
0.9565161467

> <CNNaffinity>
2.6894273758

> <CNN_VS>
2.5724806786

> <CNNaffinity_variance>
0.5774473548

$$$$



 17 17  0  0  0  0  0  0  0  0999 V2000
    4.8525  -12.4240   10.9816 C   0  0  0  0  0  0  0  0  0  0  0  0
    3.6210  -11.5331   10.8096 C   0  0  0  0  0  0  0  0  0  0  0  0
    2.8884  -11.3866   12.1556 C   0  0  0  0  0  0  0  0  0  0  0  0
    3.8429  -10.9949   13.2982 C   0  0  0  0  0  0  0  0  0  0  0  0
    5.1223  -11.8603   13.2682 C   0  0  0  0  0  0  0  0  0  0  0  0
    5.7223  -11.8738   11.9824 O   0  0  0  0  0  0  0  0  0  0  0  0
    6.0966  -11.3741   14.1757 O   0  0  0  0  0  0  0  0  0  0  0  0
    3.1743  -11.1011   14.5632 O   0  0  0  0  0  0  0  0  0  0  0  0
    1.8275  -10.4237   12.0316 O   0  0  0  0  0  0  0  0  0  0  0  0
    2.7553  -12.0654    9.8049 O   0  0  0  0  0  0  0  0  0  0  0  0
    6.2178  -10.4318   13.9741 H   0  0  0  0  0  0  0  0  0  0  0  0
    2.8487  -12.0159   14.6764 H   0  0  0  0  0  0  0  0  0  0  0  0
    2.2146   -9.5492   11.8594 H   0  0  0  0  0  0  0  0  0  0  0  0
    2.1416  -12.7011   10.2147 H   0  0  0  0  0  0  0  0  0  0  0  0
    5.6601  -12.5337    9.6853 C   0  0  0  0  0  0  0  0  0  0  0  0
    5.1909  -11.5571    8.7528 O   0  0  0  0  0  0  0  0  0  0  0  0
    4.2215  -11.6727    8.7138 H   0  0  0  0  0  0  0  0  0  0  0  0
 15  1  1  0
 15 16  1  0
  1  2  1  0
  1  6  1  0
  2  3  1  0
  2 10  1  0
  3  4  1  0
  3  9  1  0
  4  5  1  0
  4  8  1  0
  5  6  1  0
  5  7  1  0
  7 11  1  0
  8 12  1  0
  9 13  1  0
 10 14  1  0
 16 17  1  0
M  END
> <minimizedAffinity>
-4.44583

> <CNNscore>
0.9521059394

> <CNNaffinity>
2.7346000671

> <CNN_VS>
2.6036288738

> <CNNaffinity_variance>
0.6209020615

$$$$



 17 17  0  0  0  0  0  0  0  0999 V2000
    4.3710  -11.6721   13.0078 C   0  0  0  0  0  0  0  0  0  0  0  0
    5.7150  -11.8385   12.2964 C   0  0  0  0  0  0  0  0  0  0  0  0
    5.5163  -12.5990   10.9727 C   0  0  0  0  0  0  0  0  0  0  0  0
    4.3796  -12.0019   10.1234 C   0  0  0  0  0  0  0  0  0  0  0  0
    3.1293  -11.7303   10.9893 C   0  0  0  0  0  0  0  0  0  0  0  0
    3.4442  -10.9838   12.1543 O   0  0  0  0  0  0  0  0  0  0  0  0
    2.1553  -10.9904   10.2731 O   0  0  0  0  0  0  0  0  0  0  0  0
    4.0707  -12.8712    9.0245 O   0  0  0  0  0  0  0  0  0  0  0  0
    6.7473  -12.6145   10.2294 O   0  0  0  0  0  0  0  0  0  0  0  0
    6.6491  -12.5105   13.1437 O   0  0  0  0  0  0  0  0  0  0  0  0
    2.6062  -10.2051    9.9220 H   0  0  0  0  0  0  0  0  0  0  0  0
    3.8235  -13.7506    9.3728 H   0  0  0  0  0  0  0  0  0  0  0  0
    6.9678  -11.7055    9.9665 H   0  0  0  0  0  0  0  0  0  0  0  0
    6.5554  -13.4726   13.0246 H   0  0  0  0  0  0  0  0  0  0  0  0
    4.5059  -10.8495   14.2922 C   0  0  0  0  0  0  0  0  0  0  0  0
    3.5205   -9.8139   14.2952 O   0  0  0  0  0  0  0  0  0  0  0  0
    3.6110   -9.3600   13.4347 H   0  0  0  0  0  0  0  0  0  0  0  0
 15  1  1  0
 15 16  1  0
  1  2  1  0
  1  6  1  0
  2  3  1  0
  2 10  1  0
  3  4  1  0
  3  9  1  0
  4  5  1  0
  4  8  1  0
  5  6  1  0
  5  7  1  0
  7 11  1  0
  8 12  1  0
  9 13  1  0
 10 14  1  0
 16 17  1  0
M  END
> <minimizedAffinity>
-4.49549

> <CNNscore>
0.9490009546

> <CNNaffinity>
2.8017551899

> <CNN_VS>
2.6588683128

> <CNNaffinity_variance>
0.5516166091

$$$$



 17 17  0  0  0  0  0  0  0  0999 V2000
    4.2288  -11.5288   11.0195 C   0  0  0  0  0  0  0  0  0  0  0  0
    4.9294  -12.5062   10.0742 C   0  0  0  0  0  0  0  0  0  0  0  0
    6.4145  -12.6338   10.4592 C   0  0  0  0  0  0  0  0  0  0  0  0
    6.6047  -12.9050   11.9626 C   0  0  0  0  0  0  0  0  0  0  0  0
    5.7230  -11.9598   12.8086 C   0  0  0  0  0  0  0  0  0  0  0  0
    4.3709  -11.9705   12.3781 O   0  0  0  0  0  0  0  0  0  0  0  0
    5.7261  -12.3354   14.1754 O   0  0  0  0  0  0  0  0  0  0  0  0
    7.9890  -12.7806   12.3190 O   0  0  0  0  0  0  0  0  0  0  0  0
    7.0341  -13.6694    9.6770 O   0  0  0  0  0  0  0  0  0  0  0  0
    4.7815  -12.0823    8.7175 O   0  0  0  0  0  0  0  0  0  0  0  0
    5.4880  -13.2765   14.2051 H   0  0  0  0  0  0  0  0  0  0  0  0
    8.3004  -11.8847   12.0821 H   0  0  0  0  0  0  0  0  0  0  0  0
    6.6380  -14.5240    9.9158 H   0  0  0  0  0  0  0  0  0  0  0  0
    5.5039  -11.4689    8.4928 H   0  0  0  0  0  0  0  0  0  0  0  0
    2.7292  -11.4304   10.7261 C   0  0  0  0  0  0  0  0  0  0  0  0
    2.0884  -10.7074   11.7797 O   0  0  0  0  0  0  0  0  0  0  0  0
    2.3781  -11.1356   12.6088 H   0  0  0  0  0  0  0  0  0  0  0  0
 15  1  1  0
 15 16  1  0
  1  2  1  0
  1  6  1  0
  2  3  1  0
  2 10  1  0
  3  4  1  0
  3  9  1  0
  4  5  1  0
  4  8  1  0
  5  6  1  0
  5  7  1  0
  7 11  1  0
  8 12  1  0
  9 13  1  0
 10 14  1  0
 16 17  1  0
M  END
> <minimizedAffinity>
-3.76384

> <CNNscore>
0.9401052594

> <CNNaffinity>
2.8335561752

> <CNN_VS>
2.6638410091

> <CNNaffinity_variance>
0.4070266187

$$$$



 17 17  0  0  0  0  0  0  0  0999 V2000
    6.0975  -12.1696   11.3287 C   0  0  0  0  0  0  0  0  0  0  0  0
    5.4823  -12.1453   12.7289 C   0  0  0  0  0  0  0  0  0  0  0  0
    4.1957  -11.2998   12.7211 C   0  0  0  0  0  0  0  0  0  0  0  0
    3.2437  -11.6994   11.5792 C   0  0  0  0  0  0  0  0  0  0  0  0
    4.0126  -11.8478   10.2475 C   0  0  0  0  0  0  0  0  0  0  0  0
    5.1491  -12.6867   10.3831 O   0  0  0  0  0  0  0  0  0  0  0  0
    3.1949  -12.4168    9.2391 O   0  0  0  0  0  0  0  0  0  0  0  0
    2.1806  -10.7431   11.4606 O   0  0  0  0  0  0  0  0  0  0  0  0
    3.5326  -11.4085   13.9926 O   0  0  0  0  0  0  0  0  0  0  0  0
    6.4241  -11.6449   13.6801 O   0  0  0  0  0  0  0  0  0  0  0  0
    2.8270  -13.2359    9.6095 H   0  0  0  0  0  0  0  0  0  0  0  0
    2.5638   -9.8575   11.3039 H   0  0  0  0  0  0  0  0  0  0  0  0
    3.2310  -12.3243   14.1131 H   0  0  0  0  0  0  0  0  0  0  0  0
    6.3561  -10.6740   13.7182 H   0  0  0  0  0  0  0  0  0  0  0  0
    7.3374  -13.0662   11.2682 C   0  0  0  0  0  0  0  0  0  0  0  0
    8.1589  -12.6623   10.1703 O   0  0  0  0  0  0  0  0  0  0  0  0
    7.5656  -12.6276    9.3946 H   0  0  0  0  0  0  0  0  0  0  0  0
 15  1  1  0
 15 16  1  0
  1  2  1  0
  1  6  1  0
  2  3  1  0
  2 10  1  0
  3  4  1  0
  3  9  1  0
  4  5  1  0
  4  8  1  0
  5  6  1  0
  5  7  1  0
  7 11  1  0
  8 12  1  0
  9 13  1  0
 10 14  1  0
 16 17  1  0
M  END
> <minimizedAffinity>
-4.08909

> <CNNscore>
0.9374337792

> <CNNaffinity>
2.7341167927

> <CNN_VS>
2.5630533695

> <CNNaffinity_variance>
0.5181771517

$$$$



 17 17  0  0  0  0  0  0  0  0999 V2000
    5.8993  -12.0387   11.9888 C   0  0  0  0  0  0  0  0  0  0  0  0
    4.7931  -11.8599   13.0300 C   0  0  0  0  0  0  0  0  0  0  0  0
    3.5899  -11.1375   12.3973 C   0  0  0  0  0  0  0  0  0  0  0  0
    3.1584  -11.7812   11.0671 C   0  0  0  0  0  0  0  0  0  0  0  0
    4.3828  -12.0592   10.1669 C   0  0  0  0  0  0  0  0  0  0  0  0
    5.3982  -12.7689   10.8588 O   0  0  0  0  0  0  0  0  0  0  0  0
    4.0277  -12.8386    9.0375 O   0  0  0  0  0  0  0  0  0  0  0  0
    2.2015  -10.9470   10.3983 O   0  0  0  0  0  0  0  0  0  0  0  0
    2.4920  -11.1128   13.3258 O   0  0  0  0  0  0  0  0  0  0  0  0
    5.2862  -11.1459   14.1655 O   0  0  0  0  0  0  0  0  0  0  0  0
    3.5640  -13.6221    9.3757 H   0  0  0  0  0  0  0  0  0  0  0  0
    2.5959  -10.0650   10.2494 H   0  0  0  0  0  0  0  0  0  0  0  0
    2.1876  -12.0230   13.4775 H   0  0  0  0  0  0  0  0  0  0  0  0
    5.1874  -10.1894   14.0104 H   0  0  0  0  0  0  0  0  0  0  0  0
    7.0867  -12.8256   12.5504 C   0  0  0  0  0  0  0  0  0  0  0  0
    8.2486  -12.5522   11.7639 O   0  0  0  0  0  0  0  0  0  0  0  0
    7.9816  -12.7027   10.8361 H   0  0  0  0  0  0  0  0  0  0  0  0
 15  1  1  0
 15 16  1  0
  1  2  1  0
  1  6  1  0
  2  3  1  0
  2 10  1  0
  3  4  1  0
  3  9  1  0
  4  5  1  0
  4  8  1  0
  5  6  1  0
  5  7  1  0
  7 11  1  0
  8 12  1  0
  9 13  1  0
 10 14  1  0
 16 17  1  0
M  END
> <minimizedAffinity>
-3.90614

> <CNNscore>
0.9359287620

> <CNNaffinity>
2.7821214199

> <CNN_VS>
2.6038675308

> <CNNaffinity_variance>
0.4295515120

$$$$



 17 17  0  0  0  0  0  0  0  0999 V2000
    5.1414  -11.3394   13.1050 C   0  0  0  0  0  0  0  0  0  0  0  0
    3.7407  -11.0292   13.6357 C   0  0  0  0  0  0  0  0  0  0  0  0
    2.8188  -10.6197   12.4728 C   0  0  0  0  0  0  0  0  0  0  0  0
    2.8843  -11.6147   11.3000 C   0  0  0  0  0  0  0  0  0  0  0  0
    4.3489  -11.9727   10.9626 C   0  0  0  0  0  0  0  0  0  0  0  0
    5.0739  -12.3758   12.1139 O   0  0  0  0  0  0  0  0  0  0  0  0
    4.4190  -13.0407   10.0332 O   0  0  0  0  0  0  0  0  0  0  0  0
    2.2042  -11.0798   10.1554 O   0  0  0  0  0  0  0  0  0  0  0  0
    1.4673  -10.4849   12.9455 O   0  0  0  0  0  0  0  0  0  0  0  0
    3.7990  -10.0079   14.6336 O   0  0  0  0  0  0  0  0  0  0  0  0
    3.8798  -13.7616   10.3977 H   0  0  0  0  0  0  0  0  0  0  0  0
    2.6113  -10.2247    9.9129 H   0  0  0  0  0  0  0  0  0  0  0  0
    1.1441  -11.3567   13.2277 H   0  0  0  0  0  0  0  0  0  0  0  0
    3.7443   -9.1358   14.2033 H   0  0  0  0  0  0  0  0  0  0  0  0
    6.0741  -11.8303   14.2158 C   0  0  0  0  0  0  0  0  0  0  0  0
    5.9041  -13.2393   14.3866 O   0  0  0  0  0  0  0  0  0  0  0  0
    4.9421  -13.3799   14.4842 H   0  0  0  0  0  0  0  0  0  0  0  0
 15  1  1  0
 15 16  1  0
  1  2  1  0
  1  6  1  0
  2  3  1  0
  2 10  1  0
  3  4  1  0
  3  9  1  0
  4  5  1  0
  4  8  1  0
  5  6  1  0
  5  7  1  0
  7 11  1  0
  8 12  1  0
  9 13  1  0
 10 14  1  0
 16 17  1  0
M  END
> <minimizedAffinity>
-3.74958

> <CNNscore>
0.9326508045

> <CNNaffinity>
2.6829907894

> <CNN_VS>
2.5022935867

> <CNNaffinity_variance>
0.5179100633

$$$$



 17 17  0  0  0  0  0  0  0  0999 V2000
    4.3297  -12.0795   11.3407 C   0  0  0  0  0  0  0  0  0  0  0  0
    3.4017  -10.9680   11.8338 C   0  0  0  0  0  0  0  0  0  0  0  0
    3.3350  -10.9852   13.3718 C   0  0  0  0  0  0  0  0  0  0  0  0
    4.7333  -11.0232   14.0146 C   0  0  0  0  0  0  0  0  0  0  0  0
    5.6287  -12.0756   13.3236 C   0  0  0  0  0  0  0  0  0  0  0  0
    5.6366  -11.9199   11.9132 O   0  0  0  0  0  0  0  0  0  0  0  0
    6.9738  -11.9761   13.7595 O   0  0  0  0  0  0  0  0  0  0  0  0
    4.6264  -11.2772   15.4227 O   0  0  0  0  0  0  0  0  0  0  0  0
    2.5945   -9.8451   13.8409 O   0  0  0  0  0  0  0  0  0  0  0  0
    2.1015  -11.1102   11.2582 O   0  0  0  0  0  0  0  0  0  0  0  0
    7.2374  -11.0494   13.6370 H   0  0  0  0  0  0  0  0  0  0  0  0
    4.1543  -12.1222   15.5598 H   0  0  0  0  0  0  0  0  0  0  0  0
    3.0869   -9.0371   13.6195 H   0  0  0  0  0  0  0  0  0  0  0  0
    1.5655  -11.6994   11.8187 H   0  0  0  0  0  0  0  0  0  0  0  0
    4.4918  -12.0509    9.8184 C   0  0  0  0  0  0  0  0  0  0  0  0
    3.3153  -12.5866    9.2082 O   0  0  0  0  0  0  0  0  0  0  0  0
    3.1564  -13.4446    9.6480 H   0  0  0  0  0  0  0  0  0  0  0  0
 15  1  1  0
 15 16  1  0
  1  2  1  0
  1  6  1  0
  2  3  1  0
  2 10  1  0
  3  4  1  0
  3  9  1  0
  4  5  1  0
  4  8  1  0
  5  6  1  0
  5  7  1  0
  7 11  1  0
  8 12  1  0
  9 13  1  0
 10 14  1  0
 16 17  1  0
M  END
> <minimizedAffinity>
-4.03431

> <CNNscore>
0.9324310422

> <CNNaffinity>
2.7349102497

> <CNN_VS>
2.5501151085

> <CNNaffinity_variance>
0.5039441586

$$$$



 17 17  0  0  0  0  0  0  0  0999 V2000
    5.1436  -12.2537   12.1866 C   0  0  0  0  0  0  0  0  0  0  0  0
    4.3374  -11.8959   10.9368 C   0  0  0  0  0  0  0  0  0  0  0  0
    2.8785  -11.5927   11.3237 C   0  0  0  0  0  0  0  0  0  0  0  0
    2.7815  -10.5934   12.4907 C   0  0  0  0  0  0  0  0  0  0  0  0
    3.7600  -10.9736   13.6242 C   0  0  0  0  0  0  0  0  0  0  0  0
    5.0772  -11.1814   13.1389 O   0  0  0  0  0  0  0  0  0  0  0  0
    3.8356   -9.9538   14.6056 O   0  0  0  0  0  0  0  0  0  0  0  0
    1.4321  -10.5213   12.9728 O   0  0  0  0  0  0  0  0  0  0  0  0
    2.1618  -11.1016   10.1777 O   0  0  0  0  0  0  0  0  0  0  0  0
    4.4089  -12.9519    9.9766 O   0  0  0  0  0  0  0  0  0  0  0  0
    4.0341   -9.1285   14.1336 H   0  0  0  0  0  0  0  0  0  0  0  0
    1.1441  -11.4134   13.2502 H   0  0  0  0  0  0  0  0  0  0  0  0
    2.5361  -10.2439    9.9160 H   0  0  0  0  0  0  0  0  0  0  0  0
    3.6999  -13.5956   10.1546 H   0  0  0  0  0  0  0  0  0  0  0  0
    6.6221  -12.4850   11.8622 C   0  0  0  0  0  0  0  0  0  0  0  0
    7.4043  -12.2578   13.0369 O   0  0  0  0  0  0  0  0  0  0  0  0
    7.1282  -11.3831   13.3737 H   0  0  0  0  0  0  0  0  0  0  0  0
 15  1  1  0
 15 16  1  0
  1  2  1  0
  1  6  1  0
  2  3  1  0
  2 10  1  0
  3  4  1  0
  3  9  1  0
  4  5  1  0
  4  8  1  0
  5  6  1  0
  5  7  1  0
  7 11  1  0
  8 12  1  0
  9 13  1  0
 10 14  1  0
 16 17  1  0
M  END
> <minimizedAffinity>
-4.05614

> <CNNscore>
0.9293969274

> <CNNaffinity>
2.7452213764

> <CNN_VS>
2.5514004230

> <CNNaffinity_variance>
0.5258054733

$$$$



 17 17  0  0  0  0  0  0  0  0999 V2000
    5.8152  -12.6879   12.2535 C   0  0  0  0  0  0  0  0  0  0  0  0
    5.9313  -12.5488   10.7346 C   0  0  0  0  0  0  0  0  0  0  0  0
    4.5294  -12.4193   10.1118 C   0  0  0  0  0  0  0  0  0  0  0  0
    3.6753  -11.3507   10.8178 C   0  0  0  0  0  0  0  0  0  0  0  0
    3.7675  -11.4977   12.3529 C   0  0  0  0  0  0  0  0  0  0  0  0
    5.1132  -11.5605   12.7988 O   0  0  0  0  0  0  0  0  0  0  0  0
    3.1620  -10.4001   13.0146 O   0  0  0  0  0  0  0  0  0  0  0  0
    2.3143  -11.4265   10.3702 O   0  0  0  0  0  0  0  0  0  0  0  0
    4.6440  -12.1278    8.7082 O   0  0  0  0  0  0  0  0  0  0  0  0
    6.6413  -13.6600   10.1838 O   0  0  0  0  0  0  0  0  0  0  0  0
    3.5604   -9.5969   12.6413 H   0  0  0  0  0  0  0  0  0  0  0  0
    1.9695  -12.3240   10.5471 H   0  0  0  0  0  0  0  0  0  0  0  0
    5.0489  -11.2510    8.6009 H   0  0  0  0  0  0  0  0  0  0  0  0
    6.0126  -14.3787    9.9917 H   0  0  0  0  0  0  0  0  0  0  0  0
    7.1898  -12.7385   12.9263 C   0  0  0  0  0  0  0  0  0  0  0  0
    8.1923  -12.3577   11.9811 O   0  0  0  0  0  0  0  0  0  0  0  0
    8.0349  -12.9109   11.1912 H   0  0  0  0  0  0  0  0  0  0  0  0
 15  1  1  0
 15 16  1  0
  1  2  1  0
  1  6  1  0
  2  3  1  0
  2 10  1  0
  3  4  1  0
  3  9  1  0
  4  5  1  0
  4  8  1  0
  5  6  1  0
  5  7  1  0
  7 11  1  0
  8 12  1  0
  9 13  1  0
 10 14  1  0
 16 17  1  0
M  END
> <minimizedAffinity>
-3.85613

> <CNNscore>
0.9212601781

> <CNNaffinity>
2.7364909649

> <CNN_VS>
2.5210201740

> <CNNaffinity_variance>
0.4627206028

$$$$



 17 17  0  0  0  0  0  0  0  0999 V2000
    4.7411  -12.0536   10.4102 C   0  0  0  0  0  0  0  0  0  0  0  0
    5.5328  -12.5472   11.6223 C   0  0  0  0  0  0  0  0  0  0  0  0
    5.3251  -11.5890   12.8092 C   0  0  0  0  0  0  0  0  0  0  0  0
    3.8365  -11.2877   13.0603 C   0  0  0  0  0  0  0  0  0  0  0  0
    3.1102  -10.9587   11.7371 C   0  0  0  0  0  0  0  0  0  0  0  0
    3.3490  -11.9430   10.7433 O   0  0  0  0  0  0  0  0  0  0  0  0
    1.7066  -10.8875   11.9217 O   0  0  0  0  0  0  0  0  0  0  0  0
    3.6984  -10.2189   14.0075 O   0  0  0  0  0  0  0  0  0  0  0  0
    5.9358  -12.1360   13.9907 O   0  0  0  0  0  0  0  0  0  0  0  0
    6.9184  -12.6740   11.2965 O   0  0  0  0  0  0  0  0  0  0  0  0
    1.4415  -11.7147   12.3561 H   0  0  0  0  0  0  0  0  0  0  0  0
    4.1635   -9.4290   13.6677 H   0  0  0  0  0  0  0  0  0  0  0  0
    5.4669  -12.9498   14.2395 H   0  0  0  0  0  0  0  0  0  0  0  0
    7.3634  -11.8215   11.4510 H   0  0  0  0  0  0  0  0  0  0  0  0
    4.8519  -13.0196    9.2273 C   0  0  0  0  0  0  0  0  0  0  0  0
    3.5713  -13.1547    8.6066 O   0  0  0  0  0  0  0  0  0  0  0  0
    2.9480  -13.3657    9.3290 H   0  0  0  0  0  0  0  0  0  0  0  0
 15  1  1  0
 15 16  1  0
  1  2  1  0
  1  6  1  0
  2  3  1  0
  2 10  1  0
  3  4  1  0
  3  9  1  0
  4  5  1  0
  4  8  1  0
  5  6  1  0
  5  7  1  0
  7 11  1  0
  8 12  1  0
  9 13  1  0
 10 14  1  0
 16 17  1  0
M  END
> <minimizedAffinity>
-4.15671

> <CNNscore>
0.9128173590

> <CNNaffinity>
2.7132637501

> <CNN_VS>
2.4767141342

> <CNNaffinity_variance>
0.5087783337

$$$$



 17 17  0  0  0  0  0  0  0  0999 V2000
    3.2679  -11.0054   13.7543 C   0  0  0  0  0  0  0  0  0  0  0  0
    4.7816  -11.1723   13.6108 C   0  0  0  0  0  0  0  0  0  0  0  0
    5.0938  -12.1705   12.4812 C   0  0  0  0  0  0  0  0  0  0  0  0
    4.3317  -11.8397   11.1851 C   0  0  0  0  0  0  0  0  0  0  0  0
    2.8468  -11.5337   11.4821 C   0  0  0  0  0  0  0  0  0  0  0  0
    2.7009  -10.5668   12.5104 O   0  0  0  0  0  0  0  0  0  0  0  0
    2.1849  -11.0244   10.3369 O   0  0  0  0  0  0  0  0  0  0  0  0
    4.4616  -12.9146   10.2437 O   0  0  0  0  0  0  0  0  0  0  0  0
    6.5108  -12.2056   12.2386 O   0  0  0  0  0  0  0  0  0  0  0  0
    5.3574  -11.5955   14.8484 O   0  0  0  0  0  0  0  0  0  0  0  0
    2.7162  -10.2761   10.0190 H   0  0  0  0  0  0  0  0  0  0  0  0
    4.1229  -13.7370   10.6494 H   0  0  0  0  0  0  0  0  0  0  0  0
    6.7930  -11.3414   11.8957 H   0  0  0  0  0  0  0  0  0  0  0  0
    5.3333  -12.5679   14.8973 H   0  0  0  0  0  0  0  0  0  0  0  0
    2.9094   -9.9591   14.8133 C   0  0  0  0  0  0  0  0  0  0  0  0
    2.8765  -10.5816   16.0997 O   0  0  0  0  0  0  0  0  0  0  0  0
    2.3018  -11.3654   15.9999 H   0  0  0  0  0  0  0  0  0  0  0  0
 15  1  1  0
 15 16  1  0
  1  2  1  0
  1  6  1  0
  2  3  1  0
  2 10  1  0
  3  4  1  0
  3  9  1  0
  4  5  1  0
  4  8  1  0
  5  6  1  0
  5  7  1  0
  7 11  1  0
  8 12  1  0
  9 13  1  0
 10 14  1  0
 16 17  1  0
M  END
> <minimizedAffinity>
-3.63617

> <CNNscore>
0.9071108103

> <CNNaffinity>
2.7170963287

> <CNN_VS>
2.4647073746

> <CNNaffinity_variance>
0.4630633295

$$$$



 17 17  0  0  0  0  0  0  0  0999 V2000
    5.3010  -11.7845   12.2531 C   0  0  0  0  0  0  0  0  0  0  0  0
    4.7936  -12.5254   11.0149 C   0  0  0  0  0  0  0  0  0  0  0  0
    5.9363  -12.6863    9.9958 C   0  0  0  0  0  0  0  0  0  0  0  0
    7.2138  -13.2557   10.6390 C   0  0  0  0  0  0  0  0  0  0  0  0
    7.5325  -12.5311   11.9658 C   0  0  0  0  0  0  0  0  0  0  0  0
    6.4084  -12.4922   12.8310 O   0  0  0  0  0  0  0  0  0  0  0  0
    8.5767  -13.1799   12.6712 O   0  0  0  0  0  0  0  0  0  0  0  0
    8.3140  -13.1671    9.7223 O   0  0  0  0  0  0  0  0  0  0  0  0
    5.5048  -13.5201    8.9064 O   0  0  0  0  0  0  0  0  0  0  0  0
    3.6817  -11.8356   10.4403 O   0  0  0  0  0  0  0  0  0  0  0  0
    8.3206  -14.1135   12.7493 H   0  0  0  0  0  0  0  0  0  0  0  0
    8.4386  -12.2330    9.4625 H   0  0  0  0  0  0  0  0  0  0  0  0
    5.3394  -14.4167    9.2425 H   0  0  0  0  0  0  0  0  0  0  0  0
    4.0090  -11.1683    9.8109 H   0  0  0  0  0  0  0  0  0  0  0  0
    4.2192  -11.6715   13.3309 C   0  0  0  0  0  0  0  0  0  0  0  0
    3.4403  -10.4960   13.0966 O   0  0  0  0  0  0  0  0  0  0  0  0
    4.0839   -9.7673   12.9984 H   0  0  0  0  0  0  0  0  0  0  0  0
 15  1  1  0
 15 16  1  0
  1  2  1  0
  1  6  1  0
  2  3  1  0
  2 10  1  0
  3  4  1  0
  3  9  1  0
  4  5  1  0
  4  8  1  0
  5  6  1  0
  5  7  1  0
  7 11  1  0
  8 12  1  0
  9 13  1  0
 10 14  1  0
 16 17  1  0
M  END
> <minimizedAffinity>
-3.42606

> <CNNscore>
0.8990558982

> <CNNaffinity>
2.7033233643

> <CNN_VS>
2.4304387569

> <CNNaffinity_variance>
0.4320222437

$$$$



 17 17  0  0  0  0  0  0  0  0999 V2000
    5.3182  -12.0876   11.9197 C   0  0  0  0  0  0  0  0  0  0  0  0
    5.4913  -12.2003   13.4353 C   0  0  0  0  0  0  0  0  0  0  0  0
    4.7651  -11.0363   14.1335 C   0  0  0  0  0  0  0  0  0  0  0  0
    3.3175  -10.8715   13.6363 C   0  0  0  0  0  0  0  0  0  0  0  0
    3.2543  -10.9345   12.0939 C   0  0  0  0  0  0  0  0  0  0  0  0
    3.9226  -12.0773   11.5830 O   0  0  0  0  0  0  0  0  0  0  0  0
    1.9152  -10.9966   11.6335 O   0  0  0  0  0  0  0  0  0  0  0  0
    2.7592   -9.6448   14.1286 O   0  0  0  0  0  0  0  0  0  0  0  0
    4.7905  -11.2296   15.5583 O   0  0  0  0  0  0  0  0  0  0  0  0
    6.8781  -12.2254   13.7795 O   0  0  0  0  0  0  0  0  0  0  0  0
    1.4934  -11.7334   12.1053 H   0  0  0  0  0  0  0  0  0  0  0  0
    3.3182   -8.8988   13.8341 H   0  0  0  0  0  0  0  0  0  0  0  0
    4.2690  -12.0194   15.7782 H   0  0  0  0  0  0  0  0  0  0  0  0
    7.1977  -11.3119   13.8893 H   0  0  0  0  0  0  0  0  0  0  0  0
    5.9560  -13.2701   11.1852 C   0  0  0  0  0  0  0  0  0  0  0  0
    4.9303  -14.0516   10.5684 O   0  0  0  0  0  0  0  0  0  0  0  0
    4.2763  -14.2323   11.2715 H   0  0  0  0  0  0  0  0  0  0  0  0
 15  1  1  0
 15 16  1  0
  1  2  1  0
  1  6  1  0
  2  3  1  0
  2 10  1  0
  3  4  1  0
  3  9  1  0
  4  5  1  0
  4  8  1  0
  5  6  1  0
  5  7  1  0
  7 11  1  0
  8 12  1  0
  9 13  1  0
 10 14  1  0
 16 17  1  0
M  END
> <minimizedAffinity>
-3.25260

> <CNNscore>
0.8576480746

> <CNNaffinity>
2.7204732895

> <CNN_VS>
2.3332085609

> <CNNaffinity_variance>
0.3926350176

$$$$



 17 17  0  0  0  0  0  0  0  0999 V2000
    5.4898  -12.6903   11.3250 C   0  0  0  0  0  0  0  0  0  0  0  0
    5.4835  -13.1504    9.8662 C   0  0  0  0  0  0  0  0  0  0  0  0
    6.6486  -14.1259    9.6196 C   0  0  0  0  0  0  0  0  0  0  0  0
    6.7026  -15.2464   10.6739 C   0  0  0  0  0  0  0  0  0  0  0  0
    6.5381  -14.6709   12.0982 C   0  0  0  0  0  0  0  0  0  0  0  0
    5.4029  -13.8255   12.1996 O   0  0  0  0  0  0  0  0  0  0  0  0
    6.3743  -15.7022   13.0566 O   0  0  0  0  0  0  0  0  0  0  0  0
    7.9261  -15.9859   10.5513 O   0  0  0  0  0  0  0  0  0  0  0  0
    6.5481  -14.6816    8.2970 O   0  0  0  0  0  0  0  0  0  0  0  0
    5.5555  -12.0260    8.9872 O   0  0  0  0  0  0  0  0  0  0  0  0
    5.6473  -16.2628   12.7396 H   0  0  0  0  0  0  0  0  0  0  0  0
    8.6810  -15.3730   10.6520 H   0  0  0  0  0  0  0  0  0  0  0  0
    5.7468  -15.2288    8.2455 H   0  0  0  0  0  0  0  0  0  0  0  0
    6.4902  -11.8010    8.8306 H   0  0  0  0  0  0  0  0  0  0  0  0
    4.2992  -11.7801   11.6391 C   0  0  0  0  0  0  0  0  0  0  0  0
    3.1505  -12.5844   11.9166 O   0  0  0  0  0  0  0  0  0  0  0  0
    3.0793  -13.2107   11.1699 H   0  0  0  0  0  0  0  0  0  0  0  0
 15  1  1  0
 15 16  1  0
  1  2  1  0
  1  6  1  0
  2  3  1  0
  2 10  1  0
  3  4  1  0
  3  9  1  0
  4  5  1  0
  4  8  1  0
  5  6  1  0
  5  7  1  0
  7 11  1  0
  8 12  1  0
  9 13  1  0
 10 14  1  0
 16 17  1  0
M  END
> <minimizedAffinity>
-2.87707

> <CNNscore>
0.8516433835

> <CNNaffinity>
3.0280361176

> <CNN_VS>
2.5788068771

> <CNNaffinity_variance>
0.1610425562

$$$$



 17 17  0  0  0  0  0  0  0  0999 V2000
    4.0538  -11.8794   12.1016 C   0  0  0  0  0  0  0  0  0  0  0  0
    5.4663  -11.7087   12.6633 C   0  0  0  0  0  0  0  0  0  0  0  0
    6.4357  -12.6626   11.9419 C   0  0  0  0  0  0  0  0  0  0  0  0
    6.3096  -12.5717   10.4103 C   0  0  0  0  0  0  0  0  0  0  0  0
    4.8267  -12.5935    9.9775 C   0  0  0  0  0  0  0  0  0  0  0  0
    4.0542  -11.6374   10.6865 O   0  0  0  0  0  0  0  0  0  0  0  0
    4.6866  -12.2995    8.5980 O   0  0  0  0  0  0  0  0  0  0  0  0
    7.0477  -13.6325    9.7869 O   0  0  0  0  0  0  0  0  0  0  0  0
    7.7861  -12.3897   12.3544 O   0  0  0  0  0  0  0  0  0  0  0  0
    5.4737  -11.9339   14.0745 O   0  0  0  0  0  0  0  0  0  0  0  0
    5.1612  -11.4666    8.4421 H   0  0  0  0  0  0  0  0  0  0  0  0
    6.7135  -14.4902   10.1159 H   0  0  0  0  0  0  0  0  0  0  0  0
    8.0348  -11.5011   12.0501 H   0  0  0  0  0  0  0  0  0  0  0  0
    5.6041  -12.8836   14.2468 H   0  0  0  0  0  0  0  0  0  0  0  0
    3.0680  -10.8924   12.7330 C   0  0  0  0  0  0  0  0  0  0  0  0
    2.0390  -10.5843   11.7898 O   0  0  0  0  0  0  0  0  0  0  0  0
    2.5014  -10.3264   10.9685 H   0  0  0  0  0  0  0  0  0  0  0  0
 15  1  1  0
 15 16  1  0
  1  2  1  0
  1  6  1  0
  2  3  1  0
  2 10  1  0
  3  4  1  0
  3  9  1  0
  4  5  1  0
  4  8  1  0
  5  6  1  0
  5  7  1  0
  7 11  1  0
  8 12  1  0
  9 13  1  0
 10 14  1  0
 16 17  1  0
M  END
> <minimizedAffinity>
-4.05807

> <CNNscore>
0.8161852360

> <CNNaffinity>
2.6434631348

> <CNN_VS>
2.1575555801

> <CNNaffinity_variance>
0.5284100175

$$$$



 17 17  0  0  0  0  0  0  0  0999 V2000
    3.8994  -13.3008   13.1892 C   0  0  0  0  0  0  0  0  0  0  0  0
    4.8769  -12.9244   12.0745 C   0  0  0  0  0  0  0  0  0  0  0  0
    4.1010  -12.4026   10.8515 C   0  0  0  0  0  0  0  0  0  0  0  0
    3.0728  -11.3220   11.2323 C   0  0  0  0  0  0  0  0  0  0  0  0
    2.2552  -11.7516   12.4707 C   0  0  0  0  0  0  0  0  0  0  0  0
    3.0916  -12.1667   13.5393 O   0  0  0  0  0  0  0  0  0  0  0  0
    1.4572  -10.6865   12.9582 O   0  0  0  0  0  0  0  0  0  0  0  0
    2.2152  -11.0369   10.1179 O   0  0  0  0  0  0  0  0  0  0  0  0
    5.0215  -11.8993    9.8679 O   0  0  0  0  0  0  0  0  0  0  0  0
    5.6955  -14.0436   11.7285 O   0  0  0  0  0  0  0  0  0  0  0  0
    2.0522   -9.9294   13.0852 H   0  0  0  0  0  0  0  0  0  0  0  0
    1.7702  -11.8613    9.8384 H   0  0  0  0  0  0  0  0  0  0  0  0
    5.4740  -11.1195   10.2301 H   0  0  0  0  0  0  0  0  0  0  0  0
    5.2436  -14.5727   11.0470 H   0  0  0  0  0  0  0  0  0  0  0  0
    4.6298  -13.7498   14.4579 C   0  0  0  0  0  0  0  0  0  0  0  0
    3.6744  -13.9806   15.4959 O   0  0  0  0  0  0  0  0  0  0  0  0
    3.1224  -13.1751   15.5314 H   0  0  0  0  0  0  0  0  0  0  0  0
 15  1  1  0
 15 16  1  0
  1  2  1  0
  1  6  1  0
  2  3  1  0
  2 10  1  0
  3  4  1  0
  3  9  1  0
  4  5  1  0
  4  8  1  0
  5  6  1  0
  5  7  1  0
  7 11  1  0
  8 12  1  0
  9 13  1  0
 10 14  1  0
 16 17  1  0
M  END
> <minimizedAffinity>
-2.94389

> <CNNscore>
0.8017511964

> <CNNaffinity>
2.6793739796

> <CNN_VS>
2.1481912136

> <CNNaffinity_variance>
0.3384334147

$$$$



 17 17  0  0  0  0  0  0  0  0999 V2000
    5.6185  -14.3664    9.6209 C   0  0  0  0  0  0  0  0  0  0  0  0
    4.7631  -13.2321    9.0539 C   0  0  0  0  0  0  0  0  0  0  0  0
    4.1505  -12.4126   10.2042 C   0  0  0  0  0  0  0  0  0  0  0  0
    5.2030  -11.9986   11.2486 C   0  0  0  0  0  0  0  0  0  0  0  0
    6.1084  -13.1935   11.6219 C   0  0  0  0  0  0  0  0  0  0  0  0
    6.6430  -13.8318   10.4728 O   0  0  0  0  0  0  0  0  0  0  0  0
    7.2074  -12.7810   12.4164 O   0  0  0  0  0  0  0  0  0  0  0  0
    4.5626  -11.4505   12.4097 O   0  0  0  0  0  0  0  0  0  0  0  0
    3.4809  -11.2548    9.6760 O   0  0  0  0  0  0  0  0  0  0  0  0
    3.7486  -13.7534    8.1930 O   0  0  0  0  0  0  0  0  0  0  0  0
    7.6397  -12.0555   11.9368 H   0  0  0  0  0  0  0  0  0  0  0  0
    3.9460  -12.1140   12.7773 H   0  0  0  0  0  0  0  0  0  0  0  0
    4.1404  -10.6668    9.2717 H   0  0  0  0  0  0  0  0  0  0  0  0
    2.9623  -13.9768    8.7228 H   0  0  0  0  0  0  0  0  0  0  0  0
    6.3151  -15.1613    8.5129 C   0  0  0  0  0  0  0  0  0  0  0  0
    5.3921  -16.0977    7.9520 O   0  0  0  0  0  0  0  0  0  0  0  0
    5.0127  -16.5823    8.7110 H   0  0  0  0  0  0  0  0  0  0  0  0
 15  1  1  0
 15 16  1  0
  1  2  1  0
  1  6  1  0
  2  3  1  0
  2 10  1  0
  3  4  1  0
  3  9  1  0
  4  5  1  0
  4  8  1  0
  5  6  1  0
  5  7  1  0
  7 11  1  0
  8 12  1  0
  9 13  1  0
 10 14  1  0
 16 17  1  0
M  END
> <minimizedAffinity>
-3.46503

> <CNNscore>
0.7600887418

> <CNNaffinity>
2.6371443272

> <CNN_VS>
2.0044636726

> <CNNaffinity_variance>
0.3730722964

$$$$
