


 17 17  0  0  0  0  0  0  0  0999 V2000
    7.7046   13.8399    1.3741 C   0  0  0  0  0  0  0  0  0  0  0  0
    6.7686   13.1997    2.4007 C   0  0  0  0  0  0  0  0  0  0  0  0
    7.5567   12.2199    3.2888 C   0  0  0  0  0  0  0  0  0  0  0  0
    8.8399   12.8527    3.8570 C   0  0  0  0  0  0  0  0  0  0  0  0
    9.6173   13.6061    2.7548 C   0  0  0  0  0  0  0  0  0  0  0  0
    8.7851   14.5082    2.0425 O   0  0  0  0  0  0  0  0  0  0  0  0
   10.6818   14.3664    3.3006 O   0  0  0  0  0  0  0  0  0  0  0  0
    9.6580   11.8489    4.4749 O   0  0  0  0  0  0  0  0  0  0  0  0
    6.7160   11.7413    4.3529 O   0  0  0  0  0  0  0  0  0  0  0  0
    5.6815   12.5435    1.7452 O   0  0  0  0  0  0  0  0  0  0  0  0
   10.2976   14.9188    4.0010 H   0  0  0  0  0  0  0  0  0  0  0  0
    9.8696   11.1590    3.8153 H   0  0  0  0  0  0  0  0  0  0  0  0
    6.4923   12.4854    4.9363 H   0  0  0  0  0  0  0  0  0  0  0  0
    5.9419   11.6302    1.5289 H   0  0  0  0  0  0  0  0  0  0  0  0
    6.9813   14.8841    0.5190 C   0  0  0  0  0  0  0  0  0  0  0  0
    7.3247   14.6891   -0.8548 O   0  0  0  0  0  0  0  0  0  0  0  0
    8.3008   14.6542   -0.8813 H   0  0  0  0  0  0  0  0  0  0  0  0
 15  1  1  0
 15 16  1  0
  1  2  1  0
  1  6  1  0
  2  3  1  0
  2 10  1  0
  3  4  1  0
  3  9  1  0
  4  5  1  0
  4  8  1  0
  5  6  1  0
  5  7  1  0
  7 11  1  0
  8 12  1  0
  9 13  1  0
 10 14  1  0
 16 17  1  0
M  END
> <minimizedAffinity>
-4.61732

> <CNNscore>
0.9571632743

> <CNNaffinity>
2.8550806046

> <CNN_VS>
2.7327783108

> <CNNaffinity_variance>
0.3709241450

$$$$



 17 17  0  0  0  0  0  0  0  0999 V2000
    9.3991   13.8720    2.3104 C   0  0  0  0  0  0  0  0  0  0  0  0
    8.4554   14.7380    1.4742 C   0  0  0  0  0  0  0  0  0  0  0  0
    7.2319   13.9105    1.0400 C   0  0  0  0  0  0  0  0  0  0  0  0
    6.5849   13.1646    2.2210 C   0  0  0  0  0  0  0  0  0  0  0  0
    7.6574   12.4615    3.0825 C   0  0  0  0  0  0  0  0  0  0  0  0
    8.7038   13.3462    3.4511 O   0  0  0  0  0  0  0  0  0  0  0  0
    7.1031   11.9514    4.2832 O   0  0  0  0  0  0  0  0  0  0  0  0
    5.6081   12.2287    1.7429 O   0  0  0  0  0  0  0  0  0  0  0  0
    6.2708   14.7629    0.3937 O   0  0  0  0  0  0  0  0  0  0  0  0
    9.1424   15.2776    0.3433 O   0  0  0  0  0  0  0  0  0  0  0  0
    6.6351   12.6888    4.7080 H   0  0  0  0  0  0  0  0  0  0  0  0
    6.0394   11.6036    1.1273 H   0  0  0  0  0  0  0  0  0  0  0  0
    5.9268   15.3986    1.0431 H   0  0  0  0  0  0  0  0  0  0  0  0
    9.0903   14.6449   -0.3953 H   0  0  0  0  0  0  0  0  0  0  0  0
   10.5931   14.6751    2.8341 C   0  0  0  0  0  0  0  0  0  0  0  0
   11.7696   13.8653    2.7738 O   0  0  0  0  0  0  0  0  0  0  0  0
   11.5364   13.0264    3.2173 H   0  0  0  0  0  0  0  0  0  0  0  0
 15  1  1  0
 15 16  1  0
  1  2  1  0
  1  6  1  0
  2  3  1  0
  2 10  1  0
  3  4  1  0
  3  9  1  0
  4  5  1  0
  4  8  1  0
  5  6  1  0
  5  7  1  0
  7 11  1  0
  8 12  1  0
  9 13  1  0
 10 14  1  0
 16 17  1  0
M  END
> <minimizedAffinity>
-4.02307

> <CNNscore>
0.9512244463

> <CNNaffinity>
2.8038284779

> <CNN_VS>
2.6670701504

> <CNNaffinity_variance>
0.3735318184

$$$$



 17 17  0  0  0  0  0  0  0  0999 V2000
    8.4676   14.4956    0.9145 C   0  0  0  0  0  0  0  0  0  0  0  0
    6.9902   14.1092    1.0041 C   0  0  0  0  0  0  0  0  0  0  0  0
    6.8358   12.8166    1.8259 C   0  0  0  0  0  0  0  0  0  0  0  0
    7.5916   12.8847    3.1653 C   0  0  0  0  0  0  0  0  0  0  0  0
    9.0188   13.4410    2.9648 C   0  0  0  0  0  0  0  0  0  0  0  0
    9.0152   14.6562    2.2319 O   0  0  0  0  0  0  0  0  0  0  0  0
    9.6490   13.7072    4.2062 O   0  0  0  0  0  0  0  0  0  0  0  0
    7.6214   11.5913    3.7858 O   0  0  0  0  0  0  0  0  0  0  0  0
    5.4415   12.5421    2.0464 O   0  0  0  0  0  0  0  0  0  0  0  0
    6.4323   13.9606   -0.3031 O   0  0  0  0  0  0  0  0  0  0  0  0
    9.0411   14.2723    4.7106 H   0  0  0  0  0  0  0  0  0  0  0  0
    8.0445   10.9546    3.1764 H   0  0  0  0  0  0  0  0  0  0  0  0
    5.0675   13.2425    2.6066 H   0  0  0  0  0  0  0  0  0  0  0  0
    6.5723   13.0466   -0.6094 H   0  0  0  0  0  0  0  0  0  0  0  0
    8.6644   15.8212    0.1738 C   0  0  0  0  0  0  0  0  0  0  0  0
    7.5220   16.6541    0.3851 O   0  0  0  0  0  0  0  0  0  0  0  0
    6.7471   16.1019    0.1627 H   0  0  0  0  0  0  0  0  0  0  0  0
 15  1  1  0
 15 16  1  0
  1  2  1  0
  1  6  1  0
  2  3  1  0
  2 10  1  0
  3  4  1  0
  3  9  1  0
  4  5  1  0
  4  8  1  0
  5  6  1  0
  5  7  1  0
  7 11  1  0
  8 12  1  0
  9 13  1  0
 10 14  1  0
 16 17  1  0
M  END
> <minimizedAffinity>
-4.09414

> <CNNscore>
0.9466296434

> <CNNaffinity>
2.8783791065

> <CNN_VS>
2.7247591019

> <CNNaffinity_variance>
0.3245823681

$$$$



 17 17  0  0  0  0  0  0  0  0999 V2000
    8.8964   13.1217    3.4065 C   0  0  0  0  0  0  0  0  0  0  0  0
    7.6739   12.2806    3.0352 C   0  0  0  0  0  0  0  0  0  0  0  0
    6.6459   13.1511    2.2900 C   0  0  0  0  0  0  0  0  0  0  0  0
    7.2843   13.9479    1.1378 C   0  0  0  0  0  0  0  0  0  0  0  0
    8.5973   14.6214    1.5951 C   0  0  0  0  0  0  0  0  0  0  0  0
    9.4731   13.6999    2.2258 O   0  0  0  0  0  0  0  0  0  0  0  0
    9.3014   15.1790    0.4986 O   0  0  0  0  0  0  0  0  0  0  0  0
    6.3554   14.9152    0.6278 O   0  0  0  0  0  0  0  0  0  0  0  0
    5.5728   12.3281    1.8008 O   0  0  0  0  0  0  0  0  0  0  0  0
    7.1008   11.6891    4.2031 O   0  0  0  0  0  0  0  0  0  0  0  0
    9.3953   14.4712   -0.1598 H   0  0  0  0  0  0  0  0  0  0  0  0
    6.0811   15.5086    1.3546 H   0  0  0  0  0  0  0  0  0  0  0  0
    5.9232   11.7211    1.1279 H   0  0  0  0  0  0  0  0  0  0  0  0
    6.4587   12.3085    4.5939 H   0  0  0  0  0  0  0  0  0  0  0  0
    9.9833   12.2786    4.0793 C   0  0  0  0  0  0  0  0  0  0  0  0
    9.5207   11.8481    5.3615 O   0  0  0  0  0  0  0  0  0  0  0  0
    9.2044   12.6547    5.8133 H   0  0  0  0  0  0  0  0  0  0  0  0
 15  1  1  0
 15 16  1  0
  1  2  1  0
  1  6  1  0
  2  3  1  0
  2 10  1  0
  3  4  1  0
  3  9  1  0
  4  5  1  0
  4  8  1  0
  5  6  1  0
  5  7  1  0
  7 11  1  0
  8 12  1  0
  9 13  1  0
 10 14  1  0
 16 17  1  0
M  END
> <minimizedAffinity>
-4.62424

> <CNNscore>
0.9463804364

> <CNNaffinity>
2.6934554577

> <CNN_VS>
2.5490336418

> <CNNaffinity_variance>
0.4626216590

$$$$



 17 17  0  0  0  0  0  0  0  0999 V2000
    7.4612   13.4492    2.9584 C   0  0  0  0  0  0  0  0  0  0  0  0
    6.6773   13.1622    1.6767 C   0  0  0  0  0  0  0  0  0  0  0  0
    6.8904   14.3034    0.6657 C   0  0  0  0  0  0  0  0  0  0  0  0
    8.3801   14.6428    0.4766 C   0  0  0  0  0  0  0  0  0  0  0  0
    9.0981   14.7491    1.8404 C   0  0  0  0  0  0  0  0  0  0  0  0
    8.8550   13.6140    2.6565 O   0  0  0  0  0  0  0  0  0  0  0  0
   10.5026   14.8506    1.6785 O   0  0  0  0  0  0  0  0  0  0  0  0
    8.5221   15.8535   -0.2802 O   0  0  0  0  0  0  0  0  0  0  0  0
    6.2874   13.9588   -0.5936 O   0  0  0  0  0  0  0  0  0  0  0  0
    5.2900   12.9826    1.9688 O   0  0  0  0  0  0  0  0  0  0  0  0
   10.7715   14.1066    1.1150 H   0  0  0  0  0  0  0  0  0  0  0  0
    8.0538   16.5762    0.1827 H   0  0  0  0  0  0  0  0  0  0  0  0
    6.7590   13.1975   -0.9706 H   0  0  0  0  0  0  0  0  0  0  0  0
    4.8447   13.8487    1.9545 H   0  0  0  0  0  0  0  0  0  0  0  0
    7.3450   12.3010    3.9648 C   0  0  0  0  0  0  0  0  0  0  0  0
    7.9447   11.1268    3.4127 O   0  0  0  0  0  0  0  0  0  0  0  0
    7.5466   11.0177    2.5270 H   0  0  0  0  0  0  0  0  0  0  0  0
 15  1  1  0
 15 16  1  0
  1  2  1  0
  1  6  1  0
  2  3  1  0
  2 10  1  0
  3  4  1  0
  3  9  1  0
  4  5  1  0
  4  8  1  0
  5  6  1  0
  5  7  1  0
  7 11  1  0
  8 12  1  0
  9 13  1  0
 10 14  1  0
 16 17  1  0
M  END
> <minimizedAffinity>
-4.20874

> <CNNscore>
0.9413083792

> <CNNaffinity>
2.8756103516

> <CNN_VS>
2.7068362236

> <CNNaffinity_variance>
0.3902286291

$$$$



 17 17  0  0  0  0  0  0  0  0999 V2000
    8.5417   14.4459    1.8838 C   0  0  0  0  0  0  0  0  0  0  0  0
    9.5237   13.5707    2.6644 C   0  0  0  0  0  0  0  0  0  0  0  0
    8.7897   12.8571    3.8142 C   0  0  0  0  0  0  0  0  0  0  0  0
    7.5033   12.1580    3.3383 C   0  0  0  0  0  0  0  0  0  0  0  0
    6.6744   13.0905    2.4273 C   0  0  0  0  0  0  0  0  0  0  0  0
    7.4594   13.6460    1.3839 O   0  0  0  0  0  0  0  0  0  0  0  0
    5.6021   12.3950    1.8144 O   0  0  0  0  0  0  0  0  0  0  0  0
    6.7330   11.7139    4.4643 O   0  0  0  0  0  0  0  0  0  0  0  0
    9.6726   11.9140    4.4460 O   0  0  0  0  0  0  0  0  0  0  0  0
   10.6125   14.3559    3.1546 O   0  0  0  0  0  0  0  0  0  0  0  0
    5.9877   11.6148    1.3832 H   0  0  0  0  0  0  0  0  0  0  0  0
    6.5251   12.4822    5.0319 H   0  0  0  0  0  0  0  0  0  0  0  0
    9.8889   11.2110    3.8111 H   0  0  0  0  0  0  0  0  0  0  0  0
   10.3744   14.7274    4.0229 H   0  0  0  0  0  0  0  0  0  0  0  0
    9.2098   15.1141    0.6789 C   0  0  0  0  0  0  0  0  0  0  0  0
    8.3736   14.9599   -0.4702 O   0  0  0  0  0  0  0  0  0  0  0  0
    8.1628   14.0070   -0.5181 H   0  0  0  0  0  0  0  0  0  0  0  0
 15  1  1  0
 15 16  1  0
  1  2  1  0
  1  6  1  0
  2  3  1  0
  2 10  1  0
  3  4  1  0
  3  9  1  0
  4  5  1  0
  4  8  1  0
  5  6  1  0
  5  7  1  0
  7 11  1  0
  8 12  1  0
  9 13  1  0
 10 14  1  0
 16 17  1  0
M  END
> <minimizedAffinity>
-4.63546

> <CNNscore>
0.9283798933

> <CNNaffinity>
2.8441240788

> <CNN_VS>
2.6404275894

> <CNNaffinity_variance>
0.3505312204

$$$$



 17 17  0  0  0  0  0  0  0  0999 V2000
    9.1710   14.5768    2.6030 C   0  0  0  0  0  0  0  0  0  0  0  0
    8.9571   13.2572    3.3464 C   0  0  0  0  0  0  0  0  0  0  0  0
    7.4731   12.8530    3.2798 C   0  0  0  0  0  0  0  0  0  0  0  0
    6.9183   12.9097    1.8449 C   0  0  0  0  0  0  0  0  0  0  0  0
    7.3367   14.2213    1.1440 C   0  0  0  0  0  0  0  0  0  0  0  0
    8.7336   14.4512    1.2413 O   0  0  0  0  0  0  0  0  0  0  0  0
    7.0159   14.1948   -0.2364 O   0  0  0  0  0  0  0  0  0  0  0  0
    5.4913   12.7605    1.8573 O   0  0  0  0  0  0  0  0  0  0  0  0
    7.2999   11.5384    3.8365 O   0  0  0  0  0  0  0  0  0  0  0  0
    9.4027   13.3680    4.6997 O   0  0  0  0  0  0  0  0  0  0  0  0
    7.4035   13.3801   -0.5959 H   0  0  0  0  0  0  0  0  0  0  0  0
    5.1015   13.4648    2.4120 H   0  0  0  0  0  0  0  0  0  0  0  0
    7.7614   10.8948    3.2735 H   0  0  0  0  0  0  0  0  0  0  0  0
    8.6739   13.7063    5.2504 H   0  0  0  0  0  0  0  0  0  0  0  0
   10.6481   14.9790    2.5725 C   0  0  0  0  0  0  0  0  0  0  0  0
   11.4530   13.8454    2.9047 O   0  0  0  0  0  0  0  0  0  0  0  0
   11.0797   13.4898    3.7347 H   0  0  0  0  0  0  0  0  0  0  0  0
 15  1  1  0
 15 16  1  0
  1  2  1  0
  1  6  1  0
  2  3  1  0
  2 10  1  0
  3  4  1  0
  3  9  1  0
  4  5  1  0
  4  8  1  0
  5  6  1  0
  5  7  1  0
  7 11  1  0
  8 12  1  0
  9 13  1  0
 10 14  1  0
 16 17  1  0
M  END
> <minimizedAffinity>
-4.08070

> <CNNscore>
0.9277470708

> <CNNaffinity>
2.7286045551

> <CNN_VS>
2.5314548016

> <CNNaffinity_variance>
0.3788891137

$$$$



 17 17  0  0  0  0  0  0  0  0999 V2000
    6.8784   15.0135   -0.0752 C   0  0  0  0  0  0  0  0  0  0  0  0
    8.3755   14.9423    0.2304 C   0  0  0  0  0  0  0  0  0  0  0  0
    8.5912   14.5944    1.7145 C   0  0  0  0  0  0  0  0  0  0  0  0
    7.7605   13.3748    2.1531 C   0  0  0  0  0  0  0  0  0  0  0  0
    6.3052   13.4890    1.6472 C   0  0  0  0  0  0  0  0  0  0  0  0
    6.2483   13.7670    0.2568 O   0  0  0  0  0  0  0  0  0  0  0  0
    5.5883   12.2847    1.8591 O   0  0  0  0  0  0  0  0  0  0  0  0
    7.8039   13.2308    3.5800 O   0  0  0  0  0  0  0  0  0  0  0  0
    9.9894   14.3692    1.9647 O   0  0  0  0  0  0  0  0  0  0  0  0
    9.0143   16.1744   -0.1100 O   0  0  0  0  0  0  0  0  0  0  0  0
    6.1190   11.5728    1.4655 H   0  0  0  0  0  0  0  0  0  0  0  0
    7.4688   14.0506    3.9940 H   0  0  0  0  0  0  0  0  0  0  0  0
   10.2730   13.5780    1.4771 H   0  0  0  0  0  0  0  0  0  0  0  0
    8.9673   16.7808    0.6508 H   0  0  0  0  0  0  0  0  0  0  0  0
    6.6133   15.2776   -1.5600 C   0  0  0  0  0  0  0  0  0  0  0  0
    7.8078   15.0276   -2.3045 O   0  0  0  0  0  0  0  0  0  0  0  0
    8.5110   15.5356   -1.8549 H   0  0  0  0  0  0  0  0  0  0  0  0
 15  1  1  0
 15 16  1  0
  1  2  1  0
  1  6  1  0
  2  3  1  0
  2 10  1  0
  3  4  1  0
  3  9  1  0
  4  5  1  0
  4  8  1  0
  5  6  1  0
  5  7  1  0
  7 11  1  0
  8 12  1  0
  9 13  1  0
 10 14  1  0
 16 17  1  0
M  END
> <minimizedAffinity>
-4.23926

> <CNNscore>
0.9167190790

> <CNNaffinity>
2.8519523144

> <CNN_VS>
2.6144390106

> <CNNaffinity_variance>
0.4131282866

$$$$



 17 17  0  0  0  0  0  0  0  0999 V2000
    6.8612   13.5569    1.5681 C   0  0  0  0  0  0  0  0  0  0  0  0
    5.9286   14.3429    2.4913 C   0  0  0  0  0  0  0  0  0  0  0  0
    5.4916   13.4569    3.6720 C   0  0  0  0  0  0  0  0  0  0  0  0
    6.6864   12.7689    4.3568 C   0  0  0  0  0  0  0  0  0  0  0  0
    7.6398   12.1504    3.3102 C   0  0  0  0  0  0  0  0  0  0  0  0
    7.9996   13.0846    2.3045 O   0  0  0  0  0  0  0  0  0  0  0  0
    8.8435   11.7014    3.9091 O   0  0  0  0  0  0  0  0  0  0  0  0
    6.2241   11.7787    5.2865 O   0  0  0  0  0  0  0  0  0  0  0  0
    4.7484   14.2408    4.6214 O   0  0  0  0  0  0  0  0  0  0  0  0
    4.7988   14.8294    1.7639 O   0  0  0  0  0  0  0  0  0  0  0  0
    9.1984   12.4509    4.4147 H   0  0  0  0  0  0  0  0  0  0  0  0
    5.6703   11.1283    4.8111 H   0  0  0  0  0  0  0  0  0  0  0  0
    5.3393   14.9062    5.0115 H   0  0  0  0  0  0  0  0  0  0  0  0
    4.1004   14.1505    1.7651 H   0  0  0  0  0  0  0  0  0  0  0  0
    7.3876   14.4233    0.4205 C   0  0  0  0  0  0  0  0  0  0  0  0
    6.3944   14.5034   -0.6045 O   0  0  0  0  0  0  0  0  0  0  0  0
    6.1340   13.5807   -0.7933 H   0  0  0  0  0  0  0  0  0  0  0  0
 15  1  1  0
 15 16  1  0
  1  2  1  0
  1  6  1  0
  2  3  1  0
  2 10  1  0
  3  4  1  0
  3  9  1  0
  4  5  1  0
  4  8  1  0
  5  6  1  0
  5  7  1  0
  7 11  1  0
  8 12  1  0
  9 13  1  0
 10 14  1  0
 16 17  1  0
M  END
> <minimizedAffinity>
-4.42984

> <CNNscore>
0.9162167907

> <CNNaffinity>
2.6659548283

> <CNN_VS>
2.4425926208

> <CNNaffinity_variance>
0.5667338967

$$$$



 17 17  0  0  0  0  0  0  0  0999 V2000
    7.7687   13.3385    2.4804 C   0  0  0  0  0  0  0  0  0  0  0  0
    8.0532   12.6415    3.8120 C   0  0  0  0  0  0  0  0  0  0  0  0
    9.5624   12.3700    3.9490 C   0  0  0  0  0  0  0  0  0  0  0  0
   10.4081   13.6225    3.6557 C   0  0  0  0  0  0  0  0  0  0  0  0
    9.9199   14.3282    2.3711 C   0  0  0  0  0  0  0  0  0  0  0  0
    8.5200   14.5588    2.3931 O   0  0  0  0  0  0  0  0  0  0  0  0
   10.5455   15.5892    2.2045 O   0  0  0  0  0  0  0  0  0  0  0  0
   11.7966   13.2738    3.5604 O   0  0  0  0  0  0  0  0  0  0  0  0
    9.8496   11.8634    5.2639 O   0  0  0  0  0  0  0  0  0  0  0  0
    7.2989   11.4321    3.9143 O   0  0  0  0  0  0  0  0  0  0  0  0
   10.4109   16.0774    3.0333 H   0  0  0  0  0  0  0  0  0  0  0  0
   11.9097   12.6022    2.8591 H   0  0  0  0  0  0  0  0  0  0  0  0
    9.6585   12.5569    5.9172 H   0  0  0  0  0  0  0  0  0  0  0  0
    7.8058   10.7033    3.5137 H   0  0  0  0  0  0  0  0  0  0  0  0
    6.2885   13.7025    2.3344 C   0  0  0  0  0  0  0  0  0  0  0  0
    5.6118   12.6555    1.6349 O   0  0  0  0  0  0  0  0  0  0  0  0
    6.1378   12.4935    0.8276 H   0  0  0  0  0  0  0  0  0  0  0  0
 15  1  1  0
 15 16  1  0
  1  2  1  0
  1  6  1  0
  2  3  1  0
  2 10  1  0
  3  4  1  0
  3  9  1  0
  4  5  1  0
  4  8  1  0
  5  6  1  0
  5  7  1  0
  7 11  1  0
  8 12  1  0
  9 13  1  0
 10 14  1  0
 16 17  1  0
M  END
> <minimizedAffinity>
-3.98482

> <CNNscore>
0.9041071534

> <CNNaffinity>
2.7072143555

> <CNN_VS>
2.4476118088

> <CNNaffinity_variance>
0.3941789567

$$$$



 17 17  0  0  0  0  0  0  0  0999 V2000
    8.3592   12.7831    3.2741 C   0  0  0  0  0  0  0  0  0  0  0  0
    9.0805   14.0385    2.7806 C   0  0  0  0  0  0  0  0  0  0  0  0
    8.7271   14.2999    1.3052 C   0  0  0  0  0  0  0  0  0  0  0  0
    7.2087   14.2589    1.0544 C   0  0  0  0  0  0  0  0  0  0  0  0
    6.5705   13.0291    1.7380 C   0  0  0  0  0  0  0  0  0  0  0  0
    6.9414   12.9312    3.1042 O   0  0  0  0  0  0  0  0  0  0  0  0
    5.1551   13.0908    1.6958 O   0  0  0  0  0  0  0  0  0  0  0  0
    6.9370   14.2684   -0.3544 O   0  0  0  0  0  0  0  0  0  0  0  0
    9.2735   15.5632    0.8889 O   0  0  0  0  0  0  0  0  0  0  0  0
   10.4923   13.9064    2.9585 O   0  0  0  0  0  0  0  0  0  0  0  0
    4.9040   13.9556    2.0596 H   0  0  0  0  0  0  0  0  0  0  0  0
    7.3819   13.5038   -0.7705 H   0  0  0  0  0  0  0  0  0  0  0  0
    8.8333   16.2748    1.3828 H   0  0  0  0  0  0  0  0  0  0  0  0
   10.8750   13.4731    2.1747 H   0  0  0  0  0  0  0  0  0  0  0  0
    8.6164   12.5277    4.7618 C   0  0  0  0  0  0  0  0  0  0  0  0
    9.8193   11.7697    4.9096 O   0  0  0  0  0  0  0  0  0  0  0  0
    9.7246   11.0035    4.3106 H   0  0  0  0  0  0  0  0  0  0  0  0
 15  1  1  0
 15 16  1  0
  1  2  1  0
  1  6  1  0
  2  3  1  0
  2 10  1  0
  3  4  1  0
  3  9  1  0
  4  5  1  0
  4  8  1  0
  5  6  1  0
  5  7  1  0
  7 11  1  0
  8 12  1  0
  9 13  1  0
 10 14  1  0
 16 17  1  0
M  END
> <minimizedAffinity>
-4.00008

> <CNNscore>
0.8949068189

> <CNNaffinity>
2.6782996655

> <CNN_VS>
2.3968286514

> <CNNaffinity_variance>
0.4078180790

$$$$



 17 17  0  0  0  0  0  0  0  0999 V2000
    8.2525   13.5396    4.1343 C   0  0  0  0  0  0  0  0  0  0  0  0
    7.5775   12.6015    3.1322 C   0  0  0  0  0  0  0  0  0  0  0  0
    6.1876   13.1475    2.7579 C   0  0  0  0  0  0  0  0  0  0  0  0
    6.2345   14.6329    2.3565 C   0  0  0  0  0  0  0  0  0  0  0  0
    7.0789   15.4485    3.3608 C   0  0  0  0  0  0  0  0  0  0  0  0
    8.3516   14.8611    3.5820 O   0  0  0  0  0  0  0  0  0  0  0  0
    7.3063   16.7673    2.8939 O   0  0  0  0  0  0  0  0  0  0  0  0
    4.9048   15.1609    2.2478 O   0  0  0  0  0  0  0  0  0  0  0  0
    5.6214   12.3561    1.6990 O   0  0  0  0  0  0  0  0  0  0  0  0
    7.4868   11.2797    3.6676 O   0  0  0  0  0  0  0  0  0  0  0  0
    7.6748   16.6853    1.9990 H   0  0  0  0  0  0  0  0  0  0  0  0
    4.4436   15.0428    3.1017 H   0  0  0  0  0  0  0  0  0  0  0  0
    6.1602   12.4697    0.8984 H   0  0  0  0  0  0  0  0  0  0  0  0
    6.6631   11.1975    4.1808 H   0  0  0  0  0  0  0  0  0  0  0  0
    9.6727   13.0799    4.4754 C   0  0  0  0  0  0  0  0  0  0  0  0
    9.8086   11.6925    4.1590 O   0  0  0  0  0  0  0  0  0  0  0  0
    9.0539   11.2473    4.5914 H   0  0  0  0  0  0  0  0  0  0  0  0
 15  1  1  0
 15 16  1  0
  1  2  1  0
  1  6  1  0
  2  3  1  0
  2 10  1  0
  3  4  1  0
  3  9  1  0
  4  5  1  0
  4  8  1  0
  5  6  1  0
  5  7  1  0
  7 11  1  0
  8 12  1  0
  9 13  1  0
 10 14  1  0
 16 17  1  0
M  END
> <minimizedAffinity>
-4.30598

> <CNNscore>
0.8920510411

> <CNNaffinity>
3.0071451664

> <CNN_VS>
2.6825270653

> <CNNaffinity_variance>
0.2881359160

$$$$



 17 17  0  0  0  0  0  0  0  0999 V2000
    7.7882   13.3664    4.6672 C   0  0  0  0  0  0  0  0  0  0  0  0
    6.7475   12.5505    3.8983 C   0  0  0  0  0  0  0  0  0  0  0  0
    6.4707   13.2074    2.5338 C   0  0  0  0  0  0  0  0  0  0  0  0
    7.7675   13.5281    1.7686 C   0  0  0  0  0  0  0  0  0  0  0  0
    8.8003   14.2072    2.6953 C   0  0  0  0  0  0  0  0  0  0  0  0
    8.9944   13.4770    3.8965 O   0  0  0  0  0  0  0  0  0  0  0  0
   10.0661   14.3159    2.0667 O   0  0  0  0  0  0  0  0  0  0  0  0
    7.4806   14.3454    0.6247 O   0  0  0  0  0  0  0  0  0  0  0  0
    5.6175   12.3579    1.7474 O   0  0  0  0  0  0  0  0  0  0  0  0
    5.5475   12.4229    4.6637 O   0  0  0  0  0  0  0  0  0  0  0  0
   10.2980   13.4261    1.7541 H   0  0  0  0  0  0  0  0  0  0  0  0
    7.0365   15.1644    0.9208 H   0  0  0  0  0  0  0  0  0  0  0  0
    6.0951   11.5377    1.5394 H   0  0  0  0  0  0  0  0  0  0  0  0
    4.9692   13.1855    4.4826 H   0  0  0  0  0  0  0  0  0  0  0  0
    8.1566   12.7069    5.9991 C   0  0  0  0  0  0  0  0  0  0  0  0
    7.1450   12.9987    6.9660 O   0  0  0  0  0  0  0  0  0  0  0  0
    7.0246   13.9680    6.9388 H   0  0  0  0  0  0  0  0  0  0  0  0
 15  1  1  0
 15 16  1  0
  1  2  1  0
  1  6  1  0
  2  3  1  0
  2 10  1  0
  3  4  1  0
  3  9  1  0
  4  5  1  0
  4  8  1  0
  5  6  1  0
  5  7  1  0
  7 11  1  0
  8 12  1  0
  9 13  1  0
 10 14  1  0
 16 17  1  0
M  END
> <minimizedAffinity>
-3.99031

> <CNNscore>
0.8747498989

> <CNNaffinity>
2.7295143604

> <CNN_VS>
2.3876423836

> <CNNaffinity_variance>
0.2901953757

$$$$



 17 17  0  0  0  0  0  0  0  0999 V2000
    7.1800   15.4659    3.1655 C   0  0  0  0  0  0  0  0  0  0  0  0
    6.1562   14.6201    2.4063 C   0  0  0  0  0  0  0  0  0  0  0  0
    6.6355   13.1590    2.3323 C   0  0  0  0  0  0  0  0  0  0  0  0
    7.0628   12.6163    3.7082 C   0  0  0  0  0  0  0  0  0  0  0  0
    7.9655   13.6311    4.4444 C   0  0  0  0  0  0  0  0  0  0  0  0
    7.3868   14.9262    4.4797 O   0  0  0  0  0  0  0  0  0  0  0  0
    8.1923   13.2413    5.7882 O   0  0  0  0  0  0  0  0  0  0  0  0
    7.7196   11.3492    3.5608 O   0  0  0  0  0  0  0  0  0  0  0  0
    5.6035   12.3350    1.7629 O   0  0  0  0  0  0  0  0  0  0  0  0
    5.9330   15.1577    1.1012 O   0  0  0  0  0  0  0  0  0  0  0  0
    7.3187   13.0866    6.1835 H   0  0  0  0  0  0  0  0  0  0  0  0
    8.4918   11.4565    2.9710 H   0  0  0  0  0  0  0  0  0  0  0  0
    4.8432   12.3200    2.3677 H   0  0  0  0  0  0  0  0  0  0  0  0
    6.5856   14.7816    0.4837 H   0  0  0  0  0  0  0  0  0  0  0  0
    6.7079   16.9126    3.3354 C   0  0  0  0  0  0  0  0  0  0  0  0
    7.0544   17.6623    2.1686 O   0  0  0  0  0  0  0  0  0  0  0  0
    8.0048   17.4926    2.0176 H   0  0  0  0  0  0  0  0  0  0  0  0
 15  1  1  0
 15 16  1  0
  1  2  1  0
  1  6  1  0
  2  3  1  0
  2 10  1  0
  3  4  1  0
  3  9  1  0
  4  5  1  0
  4  8  1  0
  5  6  1  0
  5  7  1  0
  7 11  1  0
  8 12  1  0
  9 13  1  0
 10 14  1  0
 16 17  1  0
M  END
> <minimizedAffinity>
-3.61636

> <CNNscore>
0.8704663515

> <CNNaffinity>
3.0147202015

> <CNN_VS>
2.6242125034

> <CNNaffinity_variance>
0.1306991130

$$$$



 17 17  0  0  0  0  0  0  0  0999 V2000
    6.5752   14.2451    3.6621 C   0  0  0  0  0  0  0  0  0  0  0  0
    6.5031   12.7520    3.3376 C   0  0  0  0  0  0  0  0  0  0  0  0
    7.9243   12.1704    3.2287 C   0  0  0  0  0  0  0  0  0  0  0  0
    8.8029   12.5511    4.4341 C   0  0  0  0  0  0  0  0  0  0  0  0
    8.6662   14.0545    4.7624 C   0  0  0  0  0  0  0  0  0  0  0  0
    7.3083   14.4495    4.8794 O   0  0  0  0  0  0  0  0  0  0  0  0
    9.2988   14.3752    5.9896 O   0  0  0  0  0  0  0  0  0  0  0  0
   10.1706   12.1969    4.1841 O   0  0  0  0  0  0  0  0  0  0  0  0
    7.8570   10.7412    3.0843 O   0  0  0  0  0  0  0  0  0  0  0  0
    5.7628   12.5372    2.1342 O   0  0  0  0  0  0  0  0  0  0  0  0
    8.9427   13.7625    6.6538 H   0  0  0  0  0  0  0  0  0  0  0  0
   10.4742   12.6491    3.3722 H   0  0  0  0  0  0  0  0  0  0  0  0
    7.4908   10.3593    3.8994 H   0  0  0  0  0  0  0  0  0  0  0  0
    6.3666   12.5941    1.3720 H   0  0  0  0  0  0  0  0  0  0  0  0
    5.1832   14.8515    3.8604 C   0  0  0  0  0  0  0  0  0  0  0  0
    4.7277   15.4026    2.6226 O   0  0  0  0  0  0  0  0  0  0  0  0
    5.4510   15.9791    2.3075 H   0  0  0  0  0  0  0  0  0  0  0  0
 15  1  1  0
 15 16  1  0
  1  2  1  0
  1  6  1  0
  2  3  1  0
  2 10  1  0
  3  4  1  0
  3  9  1  0
  4  5  1  0
  4  8  1  0
  5  6  1  0
  5  7  1  0
  7 11  1  0
  8 12  1  0
  9 13  1  0
 10 14  1  0
 16 17  1  0
M  END
> <minimizedAffinity>
-3.75047

> <CNNscore>
0.8669962287

> <CNNaffinity>
3.1782150269

> <CNN_VS>
2.7555005550

> <CNNaffinity_variance>
0.1386137754

$$$$



 17 17  0  0  0  0  0  0  0  0999 V2000
    6.9536   13.2748    3.7187 C   0  0  0  0  0  0  0  0  0  0  0  0
    6.2950   13.5329    2.3625 C   0  0  0  0  0  0  0  0  0  0  0  0
    5.1191   14.5125    2.5292 C   0  0  0  0  0  0  0  0  0  0  0  0
    5.5152   15.7664    3.3297 C   0  0  0  0  0  0  0  0  0  0  0  0
    6.3141   15.3825    4.5951 C   0  0  0  0  0  0  0  0  0  0  0  0
    7.3949   14.5133    4.2954 O   0  0  0  0  0  0  0  0  0  0  0  0
    6.8642   16.5263    5.2260 O   0  0  0  0  0  0  0  0  0  0  0  0
    4.3486   16.5314    3.6650 O   0  0  0  0  0  0  0  0  0  0  0  0
    4.6032   14.8799    1.2381 O   0  0  0  0  0  0  0  0  0  0  0  0
    5.8647   12.3039    1.7738 O   0  0  0  0  0  0  0  0  0  0  0  0
    7.3584   17.0091    4.5433 H   0  0  0  0  0  0  0  0  0  0  0  0
    3.7339   15.9688    4.1761 H   0  0  0  0  0  0  0  0  0  0  0  0
    5.2829   15.3822    0.7588 H   0  0  0  0  0  0  0  0  0  0  0  0
    4.9647   12.0978    2.0840 H   0  0  0  0  0  0  0  0  0  0  0  0
    8.1809   12.3680    3.5911 C   0  0  0  0  0  0  0  0  0  0  0  0
    7.7529   11.0256    3.3500 O   0  0  0  0  0  0  0  0  0  0  0  0
    7.0935   10.8294    4.0439 H   0  0  0  0  0  0  0  0  0  0  0  0
 15  1  1  0
 15 16  1  0
  1  2  1  0
  1  6  1  0
  2  3  1  0
  2 10  1  0
  3  4  1  0
  3  9  1  0
  4  5  1  0
  4  8  1  0
  5  6  1  0
  5  7  1  0
  7 11  1  0
  8 12  1  0
  9 13  1  0
 10 14  1  0
 16 17  1  0
M  END
> <minimizedAffinity>
-4.31699

> <CNNscore>
0.8212555647

> <CNNaffinity>
2.8413078785

> <CNN_VS>
2.3334398270

> <CNNaffinity_variance>
0.2577119172

$$$$



 17 17  0  0  0  0  0  0  0  0999 V2000
    8.2228   15.1613    3.5517 C   0  0  0  0  0  0  0  0  0  0  0  0
    8.0924   13.8508    4.3297 C   0  0  0  0  0  0  0  0  0  0  0  0
    6.8880   13.0480    3.8054 C   0  0  0  0  0  0  0  0  0  0  0  0
    6.8993   12.9168    2.2716 C   0  0  0  0  0  0  0  0  0  0  0  0
    7.1996   14.2775    1.6045 C   0  0  0  0  0  0  0  0  0  0  0  0
    8.3586   14.8894    2.1485 O   0  0  0  0  0  0  0  0  0  0  0  0
    7.4217   14.1328    0.2121 O   0  0  0  0  0  0  0  0  0  0  0  0
    5.6530   12.3764    1.8096 O   0  0  0  0  0  0  0  0  0  0  0  0
    6.8608   11.7496    4.4230 O   0  0  0  0  0  0  0  0  0  0  0  0
    7.9707   14.1107    5.7296 O   0  0  0  0  0  0  0  0  0  0  0  0
    8.1054   13.4506    0.1095 H   0  0  0  0  0  0  0  0  0  0  0  0
    4.9240   12.9562    2.1065 H   0  0  0  0  0  0  0  0  0  0  0  0
    7.6417   11.2479    4.1356 H   0  0  0  0  0  0  0  0  0  0  0  0
    7.0315   14.2445    5.9504 H   0  0  0  0  0  0  0  0  0  0  0  0
    9.4570   15.9583    3.9835 C   0  0  0  0  0  0  0  0  0  0  0  0
   10.6310   15.1811    3.7363 O   0  0  0  0  0  0  0  0  0  0  0  0
   10.4646   14.3115    4.1497 H   0  0  0  0  0  0  0  0  0  0  0  0
 15  1  1  0
 15 16  1  0
  1  2  1  0
  1  6  1  0
  2  3  1  0
  2 10  1  0
  3  4  1  0
  3  9  1  0
  4  5  1  0
  4  8  1  0
  5  6  1  0
  5  7  1  0
  7 11  1  0
  8 12  1  0
  9 13  1  0
 10 14  1  0
 16 17  1  0
M  END
> <minimizedAffinity>
-3.78769

> <CNNscore>
0.7915992141

> <CNNaffinity>
2.9442405701

> <CNN_VS>
2.3306584358

> <CNNaffinity_variance>
0.2181320637

$$$$



 17 17  0  0  0  0  0  0  0  0999 V2000
    8.3610   14.2994    4.5280 C   0  0  0  0  0  0  0  0  0  0  0  0
    6.9721   14.9384    4.4790 C   0  0  0  0  0  0  0  0  0  0  0  0
    6.2279   14.4776    3.2125 C   0  0  0  0  0  0  0  0  0  0  0  0
    6.2670   12.9485    3.0385 C   0  0  0  0  0  0  0  0  0  0  0  0
    7.6942   12.4041    3.2700 C   0  0  0  0  0  0  0  0  0  0  0  0
    8.2463   12.8688    4.4918 O   0  0  0  0  0  0  0  0  0  0  0  0
    7.7049   10.9877    3.3220 O   0  0  0  0  0  0  0  0  0  0  0  0
    5.7766   12.5831    1.7405 O   0  0  0  0  0  0  0  0  0  0  0  0
    4.8691   14.9473    3.2469 O   0  0  0  0  0  0  0  0  0  0  0  0
    7.0753   16.3629    4.5286 O   0  0  0  0  0  0  0  0  0  0  0  0
    7.0407   10.7291    3.9817 H   0  0  0  0  0  0  0  0  0  0  0  0
    6.3174   13.0277    1.0581 H   0  0  0  0  0  0  0  0  0  0  0  0
    4.4050   14.5146    3.9828 H   0  0  0  0  0  0  0  0  0  0  0  0
    7.1806   16.7083    3.6241 H   0  0  0  0  0  0  0  0  0  0  0  0
    9.1097   14.6648    5.8128 C   0  0  0  0  0  0  0  0  0  0  0  0
   10.2696   15.4318    5.4814 O   0  0  0  0  0  0  0  0  0  0  0  0
   10.7381   14.9194    4.7938 H   0  0  0  0  0  0  0  0  0  0  0  0
 15  1  1  0
 15 16  1  0
  1  2  1  0
  1  6  1  0
  2  3  1  0
  2 10  1  0
  3  4  1  0
  3  9  1  0
  4  5  1  0
  4  8  1  0
  5  6  1  0
  5  7  1  0
  7 11  1  0
  8 12  1  0
  9 13  1  0
 10 14  1  0
 16 17  1  0
M  END
> <minimizedAffinity>
-3.60607

> <CNNscore>
0.7521803975

> <CNNaffinity>
3.1459929943

> <CNN_VS>
2.3663542271

> <CNNaffinity_variance>
0.1278454512

$$$$



 17 17  0  0  0  0  0  0  0  0999 V2000
    6.5023   14.8200    2.0219 C   0  0  0  0  0  0  0  0  0  0  0  0
    5.7366   13.6706    2.6794 C   0  0  0  0  0  0  0  0  0  0  0  0
    6.4840   13.1961    3.9388 C   0  0  0  0  0  0  0  0  0  0  0  0
    6.8617   14.3651    4.8666 C   0  0  0  0  0  0  0  0  0  0  0  0
    7.4801   15.5296    4.0614 C   0  0  0  0  0  0  0  0  0  0  0  0
    6.6703   15.8974    2.9557 O   0  0  0  0  0  0  0  0  0  0  0  0
    7.6368   16.6872    4.8642 O   0  0  0  0  0  0  0  0  0  0  0  0
    7.7540   13.9147    5.8959 O   0  0  0  0  0  0  0  0  0  0  0  0
    5.6868   12.2291    4.6442 O   0  0  0  0  0  0  0  0  0  0  0  0
    5.5519   12.5984    1.7529 O   0  0  0  0  0  0  0  0  0  0  0  0
    6.7714   16.8640    5.2682 H   0  0  0  0  0  0  0  0  0  0  0  0
    8.5490   13.5251    5.4813 H   0  0  0  0  0  0  0  0  0  0  0  0
    4.8847   12.6649    4.9770 H   0  0  0  0  0  0  0  0  0  0  0  0
    6.3227   12.0042    1.7926 H   0  0  0  0  0  0  0  0  0  0  0  0
    5.7548   15.3802    0.8086 C   0  0  0  0  0  0  0  0  0  0  0  0
    4.3470   15.3013    1.0437 O   0  0  0  0  0  0  0  0  0  0  0  0
    4.1756   14.3789    1.3167 H   0  0  0  0  0  0  0  0  0  0  0  0
 15  1  1  0
 15 16  1  0
  1  2  1  0
  1  6  1  0
  2  3  1  0
  2 10  1  0
  3  4  1  0
  3  9  1  0
  4  5  1  0
  4  8  1  0
  5  6  1  0
  5  7  1  0
  7 11  1  0
  8 12  1  0
  9 13  1  0
 10 14  1  0
 16 17  1  0
M  END
> <minimizedAffinity>
-3.89306

> <CNNscore>
0.7381001115

> <CNNaffinity>
2.9500157833

> <CNN_VS>
2.1774070263

> <CNNaffinity_variance>
0.1552509516

$$$$



 17 17  0  0  0  0  0  0  0  0999 V2000
    5.0460   15.2178    4.5398 C   0  0  0  0  0  0  0  0  0  0  0  0
    5.9679   14.1139    5.0606 C   0  0  0  0  0  0  0  0  0  0  0  0
    5.9116   12.8970    4.1193 C   0  0  0  0  0  0  0  0  0  0  0  0
    6.1086   13.2924    2.6446 C   0  0  0  0  0  0  0  0  0  0  0  0
    5.2427   14.5197    2.2830 C   0  0  0  0  0  0  0  0  0  0  0  0
    5.4227   15.5843    3.2038 O   0  0  0  0  0  0  0  0  0  0  0  0
    5.5694   15.0224    0.9986 O   0  0  0  0  0  0  0  0  0  0  0  0
    5.8145   12.1796    1.7879 O   0  0  0  0  0  0  0  0  0  0  0  0
    6.8951   11.9262    4.5174 O   0  0  0  0  0  0  0  0  0  0  0  0
    5.6095   13.7519    6.3958 O   0  0  0  0  0  0  0  0  0  0  0  0
    6.5301   15.1651    0.9925 H   0  0  0  0  0  0  0  0  0  0  0  0
    4.8973   11.8838    1.9522 H   0  0  0  0  0  0  0  0  0  0  0  0
    7.7808   12.3039    4.3875 H   0  0  0  0  0  0  0  0  0  0  0  0
    4.9252   13.0593    6.3674 H   0  0  0  0  0  0  0  0  0  0  0  0
    5.1300   16.4815    5.4005 C   0  0  0  0  0  0  0  0  0  0  0  0
    5.8449   17.4925    4.6861 O   0  0  0  0  0  0  0  0  0  0  0  0
    6.6743   17.0702    4.3889 H   0  0  0  0  0  0  0  0  0  0  0  0
 15  1  1  0
 15 16  1  0
  1  2  1  0
  1  6  1  0
  2  3  1  0
  2 10  1  0
  3  4  1  0
  3  9  1  0
  4  5  1  0
  4  8  1  0
  5  6  1  0
  5  7  1  0
  7 11  1  0
  8 12  1  0
  9 13  1  0
 10 14  1  0
 16 17  1  0
M  END
> <minimizedAffinity>
-3.73939

> <CNNscore>
0.7137953639

> <CNNaffinity>
3.5567913055

> <CNN_VS>
2.5388212204

> <CNNaffinity_variance>
0.0782553330

$$$$
