


 17 17  0  0  0  0  0  0  0  0999 V2000
    9.5822   -9.4635  -14.8621 C   0  0  0  0  0  0  0  0  0  0  0  0
    8.7428   -8.2022  -15.0724 C   0  0  0  0  0  0  0  0  0  0  0  0
    9.3739   -7.0205  -14.3140 C   0  0  0  0  0  0  0  0  0  0  0  0
   10.8787   -6.8786  -14.6060 C   0  0  0  0  0  0  0  0  0  0  0  0
   11.5883   -8.2481  -14.5186 C   0  0  0  0  0  0  0  0  0  0  0  0
   10.9311   -9.2355  -15.2976 O   0  0  0  0  0  0  0  0  0  0  0  0
   12.9232   -8.1696  -14.9886 O   0  0  0  0  0  0  0  0  0  0  0  0
   11.4719   -5.9289  -13.7089 O   0  0  0  0  0  0  0  0  0  0  0  0
    8.6794   -5.8043  -14.6406 O   0  0  0  0  0  0  0  0  0  0  0  0
    7.3943   -8.4238  -14.6546 O   0  0  0  0  0  0  0  0  0  0  0  0
   12.8831   -7.7688  -15.8725 H   0  0  0  0  0  0  0  0  0  0  0  0
   11.3193   -6.2207  -12.7884 H   0  0  0  0  0  0  0  0  0  0  0  0
    8.8206   -5.6038  -15.5808 H   0  0  0  0  0  0  0  0  0  0  0  0
    7.3160   -8.2233  -13.7047 H   0  0  0  0  0  0  0  0  0  0  0  0
    9.0379  -10.6488  -15.6643 C   0  0  0  0  0  0  0  0  0  0  0  0
    8.0762  -11.3518  -14.8741 O   0  0  0  0  0  0  0  0  0  0  0  0
    8.5133  -11.5249  -14.0175 H   0  0  0  0  0  0  0  0  0  0  0  0
 15  1  1  0
 15 16  1  0
  1  2  1  0
  1  6  1  0
  2  3  1  0
  2 10  1  0
  3  4  1  0
  3  9  1  0
  4  5  1  0
  4  8  1  0
  5  6  1  0
  5  7  1  0
  7 11  1  0
  8 12  1  0
  9 13  1  0
 10 14  1  0
 16 17  1  0
M  END
> <minimizedAffinity>
-4.39431

> <CNNscore>
0.9577564001

> <CNNaffinity>
2.6402084827

> <CNN_VS>
2.5286765099

> <CNNaffinity_variance>
0.5838208795

$$$$



 17 17  0  0  0  0  0  0  0  0999 V2000
   11.0141   -9.6164  -14.9143 C   0  0  0  0  0  0  0  0  0  0  0  0
    9.5266   -9.7129  -15.2579 C   0  0  0  0  0  0  0  0  0  0  0  0
    8.7530   -8.5804  -14.5586 C   0  0  0  0  0  0  0  0  0  0  0  0
    9.4039   -7.2041  -14.7862 C   0  0  0  0  0  0  0  0  0  0  0  0
   10.9311   -7.2734  -14.5635 C   0  0  0  0  0  0  0  0  0  0  0  0
   11.5258   -8.3314  -15.2989 O   0  0  0  0  0  0  0  0  0  0  0  0
   11.5681   -6.0749  -14.9721 O   0  0  0  0  0  0  0  0  0  0  0  0
    8.7995   -6.2211  -13.9335 O   0  0  0  0  0  0  0  0  0  0  0  0
    7.3868   -8.5732  -15.0076 O   0  0  0  0  0  0  0  0  0  0  0  0
    9.0111  -10.9943  -14.8914 O   0  0  0  0  0  0  0  0  0  0  0  0
   11.2802   -5.9046  -15.8839 H   0  0  0  0  0  0  0  0  0  0  0  0
    8.8943   -6.5042  -13.0026 H   0  0  0  0  0  0  0  0  0  0  0  0
    7.3669   -8.3455  -15.9520 H   0  0  0  0  0  0  0  0  0  0  0  0
    8.7151  -10.9674  -13.9638 H   0  0  0  0  0  0  0  0  0  0  0  0
   11.8378  -10.6752  -15.6527 C   0  0  0  0  0  0  0  0  0  0  0  0
   11.7739  -11.9090  -14.9336 O   0  0  0  0  0  0  0  0  0  0  0  0
   12.0088  -11.6900  -14.0108 H   0  0  0  0  0  0  0  0  0  0  0  0
 15  1  1  0
 15 16  1  0
  1  2  1  0
  1  6  1  0
  2  3  1  0
  2 10  1  0
  3  4  1  0
  3  9  1  0
  4  5  1  0
  4  8  1  0
  5  6  1  0
  5  7  1  0
  7 11  1  0
  8 12  1  0
  9 13  1  0
 10 14  1  0
 16 17  1  0
M  END
> <minimizedAffinity>
-3.69416

> <CNNscore>
0.9522054791

> <CNNaffinity>
2.6590297222

> <CNN_VS>
2.5319426060

> <CNNaffinity_variance>
0.5097197890

$$$$



 17 17  0  0  0  0  0  0  0  0999 V2000
   10.5659   -9.4968  -15.2965 C   0  0  0  0  0  0  0  0  0  0  0  0
   11.4420   -8.5358  -14.4911 C   0  0  0  0  0  0  0  0  0  0  0  0
   10.8789   -7.1064  -14.5895 C   0  0  0  0  0  0  0  0  0  0  0  0
    9.3711   -7.0525  -14.2837 C   0  0  0  0  0  0  0  0  0  0  0  0
    8.6168   -8.1737  -15.0324 C   0  0  0  0  0  0  0  0  0  0  0  0
    9.2121   -9.4444  -14.8214 O   0  0  0  0  0  0  0  0  0  0  0  0
    7.2705   -8.2694  -14.5994 O   0  0  0  0  0  0  0  0  0  0  0  0
    8.8423   -5.7606  -14.6153 O   0  0  0  0  0  0  0  0  0  0  0  0
   11.6047   -6.2341  -13.7061 O   0  0  0  0  0  0  0  0  0  0  0  0
   12.7950   -8.5911  -14.9476 O   0  0  0  0  0  0  0  0  0  0  0  0
    7.2951   -8.3484  -13.6317 H   0  0  0  0  0  0  0  0  0  0  0  0
    9.0152   -5.5777  -15.5600 H   0  0  0  0  0  0  0  0  0  0  0  0
   11.4393   -6.5069  -12.7883 H   0  0  0  0  0  0  0  0  0  0  0  0
   12.9121   -7.9601  -15.6803 H   0  0  0  0  0  0  0  0  0  0  0  0
   11.0407  -10.9464  -15.1626 C   0  0  0  0  0  0  0  0  0  0  0  0
    9.9444  -11.7661  -14.7509 O   0  0  0  0  0  0  0  0  0  0  0  0
    9.5615  -11.3228  -13.9689 H   0  0  0  0  0  0  0  0  0  0  0  0
 15  1  1  0
 15 16  1  0
  1  2  1  0
  1  6  1  0
  2  3  1  0
  2 10  1  0
  3  4  1  0
  3  9  1  0
  4  5  1  0
  4  8  1  0
  5  6  1  0
  5  7  1  0
  7 11  1  0
  8 12  1  0
  9 13  1  0
 10 14  1  0
 16 17  1  0
M  END
> <minimizedAffinity>
-4.37255

> <CNNscore>
0.9499143362

> <CNNaffinity>
3.0043623447

> <CNN_VS>
2.8538868427

> <CNNaffinity_variance>
0.2436663955

$$$$



 17 17  0  0  0  0  0  0  0  0999 V2000
   11.1388   -7.8784  -14.8869 C   0  0  0  0  0  0  0  0  0  0  0  0
    9.7110   -7.5265  -14.4656 C   0  0  0  0  0  0  0  0  0  0  0  0
    8.7117   -8.4639  -15.1675 C   0  0  0  0  0  0  0  0  0  0  0  0
    9.1049   -9.9455  -15.0252 C   0  0  0  0  0  0  0  0  0  0  0  0
   10.6077  -10.1474  -15.3216 C   0  0  0  0  0  0  0  0  0  0  0  0
   11.4190   -9.2521  -14.5774 O   0  0  0  0  0  0  0  0  0  0  0  0
   11.0278  -11.4602  -14.9912 O   0  0  0  0  0  0  0  0  0  0  0  0
    8.2930  -10.7600  -15.8831 O   0  0  0  0  0  0  0  0  0  0  0  0
    7.3882   -8.2410  -14.6511 O   0  0  0  0  0  0  0  0  0  0  0  0
    9.4272   -6.1566  -14.7569 O   0  0  0  0  0  0  0  0  0  0  0  0
   10.7523  -11.6170  -14.0731 H   0  0  0  0  0  0  0  0  0  0  0  0
    8.3992  -10.4561  -16.8061 H   0  0  0  0  0  0  0  0  0  0  0  0
    7.3664   -8.5049  -13.7162 H   0  0  0  0  0  0  0  0  0  0  0  0
    9.0924   -6.0855  -15.6688 H   0  0  0  0  0  0  0  0  0  0  0  0
   12.1752   -7.0244  -14.1513 C   0  0  0  0  0  0  0  0  0  0  0  0
   13.3804   -7.7767  -13.9932 O   0  0  0  0  0  0  0  0  0  0  0  0
   13.1103   -8.6298  -13.6008 H   0  0  0  0  0  0  0  0  0  0  0  0
 15  1  1  0
 15 16  1  0
  1  2  1  0
  1  6  1  0
  2  3  1  0
  2 10  1  0
  3  4  1  0
  3  9  1  0
  4  5  1  0
  4  8  1  0
  5  6  1  0
  5  7  1  0
  7 11  1  0
  8 12  1  0
  9 13  1  0
 10 14  1  0
 16 17  1  0
M  END
> <minimizedAffinity>
-3.70300

> <CNNscore>
0.9351065159

> <CNNaffinity>
2.5946843624

> <CNN_VS>
2.4263062477

> <CNNaffinity_variance>
0.5185579658

$$$$



 17 17  0  0  0  0  0  0  0  0999 V2000
   11.5199   -7.9879  -14.4456 C   0  0  0  0  0  0  0  0  0  0  0  0
   11.0084   -9.2069  -15.2151 C   0  0  0  0  0  0  0  0  0  0  0  0
    9.5141   -9.4255  -14.9167 C   0  0  0  0  0  0  0  0  0  0  0  0
    8.6920   -8.1349  -15.0854 C   0  0  0  0  0  0  0  0  0  0  0  0
    9.3934   -6.9414  -14.3996 C   0  0  0  0  0  0  0  0  0  0  0  0
   10.7513   -6.8268  -14.7953 O   0  0  0  0  0  0  0  0  0  0  0  0
    8.7618   -5.7147  -14.7240 O   0  0  0  0  0  0  0  0  0  0  0  0
    7.3645   -8.3204  -14.5735 O   0  0  0  0  0  0  0  0  0  0  0  0
    8.9954  -10.4684  -15.7602 O   0  0  0  0  0  0  0  0  0  0  0  0
   11.7767  -10.3655  -14.8841 O   0  0  0  0  0  0  0  0  0  0  0  0
    8.7112   -5.6764  -15.6932 H   0  0  0  0  0  0  0  0  0  0  0  0
    7.4186   -8.5812  -13.6329 H   0  0  0  0  0  0  0  0  0  0  0  0
    9.0263  -10.1702  -16.6845 H   0  0  0  0  0  0  0  0  0  0  0  0
   11.3883  -10.7945  -14.1007 H   0  0  0  0  0  0  0  0  0  0  0  0
   12.9839   -7.6818  -14.7739 C   0  0  0  0  0  0  0  0  0  0  0  0
   13.8300   -8.5241  -13.9877 O   0  0  0  0  0  0  0  0  0  0  0  0
   13.5235   -8.4206  -13.0657 H   0  0  0  0  0  0  0  0  0  0  0  0
 15  1  1  0
 15 16  1  0
  1  2  1  0
  1  6  1  0
  2  3  1  0
  2 10  1  0
  3  4  1  0
  3  9  1  0
  4  5  1  0
  4  8  1  0
  5  6  1  0
  5  7  1  0
  7 11  1  0
  8 12  1  0
  9 13  1  0
 10 14  1  0
 16 17  1  0
M  END
> <minimizedAffinity>
-4.06182

> <CNNscore>
0.9204372764

> <CNNaffinity>
2.6810004711

> <CNN_VS>
2.4676928520

> <CNNaffinity_variance>
0.4402138293

$$$$



 17 17  0  0  0  0  0  0  0  0999 V2000
   10.8574   -6.7774  -14.8676 C   0  0  0  0  0  0  0  0  0  0  0  0
    9.3833   -6.8312  -14.4625 C   0  0  0  0  0  0  0  0  0  0  0  0
    8.7142   -8.0705  -15.0841 C   0  0  0  0  0  0  0  0  0  0  0  0
    9.5236   -9.3559  -14.8343 C   0  0  0  0  0  0  0  0  0  0  0  0
   11.0234   -9.1279  -15.1267 C   0  0  0  0  0  0  0  0  0  0  0  0
   11.5246   -7.9809  -14.4582 O   0  0  0  0  0  0  0  0  0  0  0  0
   11.8063  -10.2306  -14.7021 O   0  0  0  0  0  0  0  0  0  0  0  0
    8.9997  -10.4345  -15.6221 O   0  0  0  0  0  0  0  0  0  0  0  0
    7.3763   -8.2095  -14.5753 O   0  0  0  0  0  0  0  0  0  0  0  0
    8.7134   -5.6310  -14.8534 O   0  0  0  0  0  0  0  0  0  0  0  0
   11.5758  -10.3932  -13.7727 H   0  0  0  0  0  0  0  0  0  0  0  0
    9.0252  -10.1820  -16.5662 H   0  0  0  0  0  0  0  0  0  0  0  0
    7.4196   -8.3981  -13.6231 H   0  0  0  0  0  0  0  0  0  0  0  0
    8.3857   -5.7293  -15.7654 H   0  0  0  0  0  0  0  0  0  0  0  0
   11.5860   -5.6041  -14.2064 C   0  0  0  0  0  0  0  0  0  0  0  0
   10.7445   -5.0308  -13.2031 O   0  0  0  0  0  0  0  0  0  0  0  0
    9.8865   -4.8651  -13.6404 H   0  0  0  0  0  0  0  0  0  0  0  0
 15  1  1  0
 15 16  1  0
  1  2  1  0
  1  6  1  0
  2  3  1  0
  2 10  1  0
  3  4  1  0
  3  9  1  0
  4  5  1  0
  4  8  1  0
  5  6  1  0
  5  7  1  0
  7 11  1  0
  8 12  1  0
  9 13  1  0
 10 14  1  0
 16 17  1  0
M  END
> <minimizedAffinity>
-4.60864

> <CNNscore>
0.9185094237

> <CNNaffinity>
2.6104633808

> <CNN_VS>
2.3977351189

> <CNNaffinity_variance>
0.5586634278

$$$$



 17 17  0  0  0  0  0  0  0  0999 V2000
    9.9607   -6.8546  -14.2784 C   0  0  0  0  0  0  0  0  0  0  0  0
   11.2039   -7.6052  -14.7591 C   0  0  0  0  0  0  0  0  0  0  0  0
   10.9865   -9.1228  -14.6187 C   0  0  0  0  0  0  0  0  0  0  0  0
    9.6507   -9.5787  -15.2334 C   0  0  0  0  0  0  0  0  0  0  0  0
    8.4981   -8.6457  -14.8001 C   0  0  0  0  0  0  0  0  0  0  0  0
    8.8100   -7.2797  -15.0243 O   0  0  0  0  0  0  0  0  0  0  0  0
    7.3095   -8.9235  -15.5207 O   0  0  0  0  0  0  0  0  0  0  0  0
    9.3779  -10.9410  -14.8753 O   0  0  0  0  0  0  0  0  0  0  0  0
   12.0856   -9.8307  -15.2177 O   0  0  0  0  0  0  0  0  0  0  0  0
   12.3577   -7.1786  -14.0319 O   0  0  0  0  0  0  0  0  0  0  0  0
    7.5438   -8.8980  -16.4629 H   0  0  0  0  0  0  0  0  0  0  0  0
    9.3597  -11.0175  -13.9009 H   0  0  0  0  0  0  0  0  0  0  0  0
   12.0833   -9.6639  -16.1750 H   0  0  0  0  0  0  0  0  0  0  0  0
   12.4427   -7.7143  -13.2228 H   0  0  0  0  0  0  0  0  0  0  0  0
   10.0987   -5.3423  -14.4747 C   0  0  0  0  0  0  0  0  0  0  0  0
    8.8666   -4.8168  -14.9741 O   0  0  0  0  0  0  0  0  0  0  0  0
    8.6352   -5.3716  -15.7444 H   0  0  0  0  0  0  0  0  0  0  0  0
 15  1  1  0
 15 16  1  0
  1  2  1  0
  1  6  1  0
  2  3  1  0
  2 10  1  0
  3  4  1  0
  3  9  1  0
  4  5  1  0
  4  8  1  0
  5  6  1  0
  5  7  1  0
  7 11  1  0
  8 12  1  0
  9 13  1  0
 10 14  1  0
 16 17  1  0
M  END
> <minimizedAffinity>
-4.16725

> <CNNscore>
0.9023427367

> <CNNaffinity>
2.8276484013

> <CNN_VS>
2.5515079498

> <CNNaffinity_variance>
0.3381001651

$$$$



 17 17  0  0  0  0  0  0  0  0999 V2000
   11.8494   -7.4972  -14.3687 C   0  0  0  0  0  0  0  0  0  0  0  0
   10.4472   -7.1650  -14.8817 C   0  0  0  0  0  0  0  0  0  0  0  0
    9.9291   -5.8862  -14.1990 C   0  0  0  0  0  0  0  0  0  0  0  0
   10.9529   -4.7381  -14.2601 C   0  0  0  0  0  0  0  0  0  0  0  0
   12.3632   -5.2366  -13.8736 C   0  0  0  0  0  0  0  0  0  0  0  0
   12.7353   -6.3930  -14.6071 O   0  0  0  0  0  0  0  0  0  0  0  0
   13.3480   -4.2494  -14.1277 O   0  0  0  0  0  0  0  0  0  0  0  0
   10.5363   -3.6549  -13.4164 O   0  0  0  0  0  0  0  0  0  0  0  0
    8.6839   -5.4845  -14.7960 O   0  0  0  0  0  0  0  0  0  0  0  0
    9.5609   -8.2641  -14.6614 O   0  0  0  0  0  0  0  0  0  0  0  0
   13.2343   -3.9754  -15.0525 H   0  0  0  0  0  0  0  0  0  0  0  0
   10.4329   -3.9842  -12.5017 H   0  0  0  0  0  0  0  0  0  0  0  0
    8.8455   -5.2288  -15.7193 H   0  0  0  0  0  0  0  0  0  0  0  0
    9.1694   -8.1871  -13.7729 H   0  0  0  0  0  0  0  0  0  0  0  0
   12.4402   -8.7180  -15.0797 C   0  0  0  0  0  0  0  0  0  0  0  0
   11.7254   -9.8893  -14.6793 O   0  0  0  0  0  0  0  0  0  0  0  0
   11.7165   -9.8729  -13.7023 H   0  0  0  0  0  0  0  0  0  0  0  0
 15  1  1  0
 15 16  1  0
  1  2  1  0
  1  6  1  0
  2  3  1  0
  2 10  1  0
  3  4  1  0
  3  9  1  0
  4  5  1  0
  4  8  1  0
  5  6  1  0
  5  7  1  0
  7 11  1  0
  8 12  1  0
  9 13  1  0
 10 14  1  0
 16 17  1  0
M  END
> <minimizedAffinity>
-4.08024

> <CNNscore>
0.8781642318

> <CNNaffinity>
2.7212545872

> <CNN_VS>
2.3897085190

> <CNNaffinity_variance>
0.3289026916

$$$$



 17 17  0  0  0  0  0  0  0  0999 V2000
   10.2651   -8.3991  -16.4158 C   0  0  0  0  0  0  0  0  0  0  0  0
    8.8120   -8.1921  -15.9852 C   0  0  0  0  0  0  0  0  0  0  0  0
    8.7658   -7.5952  -14.5670 C   0  0  0  0  0  0  0  0  0  0  0  0
    9.6875   -6.3709  -14.4205 C   0  0  0  0  0  0  0  0  0  0  0  0
   11.0766   -6.6504  -15.0364 C   0  0  0  0  0  0  0  0  0  0  0  0
   10.9774   -7.1539  -16.3593 O   0  0  0  0  0  0  0  0  0  0  0  0
   11.8609   -5.4714  -15.0990 O   0  0  0  0  0  0  0  0  0  0  0  0
    9.7983   -5.9941  -13.0405 O   0  0  0  0  0  0  0  0  0  0  0  0
    7.4117   -7.2514  -14.2260 O   0  0  0  0  0  0  0  0  0  0  0  0
    8.0907   -9.4240  -16.0515 O   0  0  0  0  0  0  0  0  0  0  0  0
   11.3223   -4.8035  -15.5541 H   0  0  0  0  0  0  0  0  0  0  0  0
   10.1401   -6.7536  -12.5286 H   0  0  0  0  0  0  0  0  0  0  0  0
    7.1122   -6.5350  -14.8102 H   0  0  0  0  0  0  0  0  0  0  0  0
    8.1911   -9.9000  -15.2077 H   0  0  0  0  0  0  0  0  0  0  0  0
   10.3637   -8.9165  -17.8536 C   0  0  0  0  0  0  0  0  0  0  0  0
    9.3247   -8.3279  -18.6393 O   0  0  0  0  0  0  0  0  0  0  0  0
    8.4979   -8.4792  -18.1409 H   0  0  0  0  0  0  0  0  0  0  0  0
 15  1  1  0
 15 16  1  0
  1  2  1  0
  1  6  1  0
  2  3  1  0
  2 10  1  0
  3  4  1  0
  3  9  1  0
  4  5  1  0
  4  8  1  0
  5  6  1  0
  5  7  1  0
  7 11  1  0
  8 12  1  0
  9 13  1  0
 10 14  1  0
 16 17  1  0
M  END
> <minimizedAffinity>
-3.82585

> <CNNscore>
0.8756859303

> <CNNaffinity>
2.6857280731

> <CNN_VS>
2.3518543243

> <CNNaffinity_variance>
0.3576869965

$$$$



 17 17  0  0  0  0  0  0  0  0999 V2000
   10.5751   -7.4668  -14.7991 C   0  0  0  0  0  0  0  0  0  0  0  0
   10.0608   -6.0274  -14.7400 C   0  0  0  0  0  0  0  0  0  0  0  0
   10.7269   -5.2809  -13.5699 C   0  0  0  0  0  0  0  0  0  0  0  0
   12.2577   -5.4446  -13.5711 C   0  0  0  0  0  0  0  0  0  0  0  0
   12.6536   -6.9205  -13.7987 C   0  0  0  0  0  0  0  0  0  0  0  0
   12.0045   -7.4739  -14.9328 O   0  0  0  0  0  0  0  0  0  0  0  0
   14.0484   -7.0544  -14.0126 O   0  0  0  0  0  0  0  0  0  0  0  0
   12.8125   -4.9415  -12.3474 O   0  0  0  0  0  0  0  0  0  0  0  0
   10.3681   -3.8889  -13.6117 O   0  0  0  0  0  0  0  0  0  0  0  0
    8.6369   -6.0099  -14.6209 O   0  0  0  0  0  0  0  0  0  0  0  0
   14.2800   -6.4387  -14.7271 H   0  0  0  0  0  0  0  0  0  0  0  0
   12.4096   -5.4176  -11.5946 H   0  0  0  0  0  0  0  0  0  0  0  0
   10.7468   -3.4900  -14.4127 H   0  0  0  0  0  0  0  0  0  0  0  0
    8.3935   -6.0529  -13.6788 H   0  0  0  0  0  0  0  0  0  0  0  0
   10.0009   -8.2267  -15.9981 C   0  0  0  0  0  0  0  0  0  0  0  0
   10.4263   -7.5926  -17.2065 O   0  0  0  0  0  0  0  0  0  0  0  0
   10.2064   -6.6464  -17.1005 H   0  0  0  0  0  0  0  0  0  0  0  0
 15  1  1  0
 15 16  1  0
  1  2  1  0
  1  6  1  0
  2  3  1  0
  2 10  1  0
  3  4  1  0
  3  9  1  0
  4  5  1  0
  4  8  1  0
  5  6  1  0
  5  7  1  0
  7 11  1  0
  8 12  1  0
  9 13  1  0
 10 14  1  0
 16 17  1  0
M  END
> <minimizedAffinity>
-3.88859

> <CNNscore>
0.8720930815

> <CNNaffinity>
2.6561279297

> <CNN_VS>
2.3163907528

> <CNNaffinity_variance>
0.3965031207

$$$$



 17 17  0  0  0  0  0  0  0  0999 V2000
   10.6781   -7.0481  -14.7753 C   0  0  0  0  0  0  0  0  0  0  0  0
   10.0592   -5.7977  -14.1480 C   0  0  0  0  0  0  0  0  0  0  0  0
   11.0910   -4.6553  -14.1302 C   0  0  0  0  0  0  0  0  0  0  0  0
   11.7602   -4.4540  -15.5019 C   0  0  0  0  0  0  0  0  0  0  0  0
   12.1987   -5.8072  -16.1047 C   0  0  0  0  0  0  0  0  0  0  0  0
   11.1426   -6.7550  -16.1017 O   0  0  0  0  0  0  0  0  0  0  0  0
   12.6212   -5.6612  -17.4498 O   0  0  0  0  0  0  0  0  0  0  0  0
   12.8712   -3.5535  -15.3858 O   0  0  0  0  0  0  0  0  0  0  0  0
   10.4636   -3.4380  -13.6911 O   0  0  0  0  0  0  0  0  0  0  0  0
    9.5810   -6.0831  -12.8320 O   0  0  0  0  0  0  0  0  0  0  0  0
   11.9049   -5.2014  -17.9174 H   0  0  0  0  0  0  0  0  0  0  0  0
   13.5064   -3.9124  -14.7350 H   0  0  0  0  0  0  0  0  0  0  0  0
    9.8021   -3.1692  -14.3502 H   0  0  0  0  0  0  0  0  0  0  0  0
   10.3038   -5.9510  -12.1926 H   0  0  0  0  0  0  0  0  0  0  0  0
    9.6629   -8.1888  -14.8889 C   0  0  0  0  0  0  0  0  0  0  0  0
    8.7865   -7.9329  -15.9889 O   0  0  0  0  0  0  0  0  0  0  0  0
    8.4575   -7.0221  -15.8588 H   0  0  0  0  0  0  0  0  0  0  0  0
 15  1  1  0
 15 16  1  0
  1  2  1  0
  1  6  1  0
  2  3  1  0
  2 10  1  0
  3  4  1  0
  3  9  1  0
  4  5  1  0
  4  8  1  0
  5  6  1  0
  5  7  1  0
  7 11  1  0
  8 12  1  0
  9 13  1  0
 10 14  1  0
 16 17  1  0
M  END
> <minimizedAffinity>
-3.89374

> <CNNscore>
0.8597373962

> <CNNaffinity>
2.7122612000

> <CNN_VS>
2.3318324089

> <CNNaffinity_variance>
0.3235059977

$$$$



 17 17  0  0  0  0  0  0  0  0999 V2000
   10.1991   -7.7086  -14.6681 C   0  0  0  0  0  0  0  0  0  0  0  0
   10.3789   -7.3402  -16.1418 C   0  0  0  0  0  0  0  0  0  0  0  0
   10.9654   -8.5366  -16.9129 C   0  0  0  0  0  0  0  0  0  0  0  0
   10.1940   -9.8403  -16.6389 C   0  0  0  0  0  0  0  0  0  0  0  0
    9.9346  -10.0192  -15.1264 C   0  0  0  0  0  0  0  0  0  0  0  0
    9.3520   -8.8615  -14.5486 O   0  0  0  0  0  0  0  0  0  0  0  0
    9.0487  -11.0975  -14.8779 O   0  0  0  0  0  0  0  0  0  0  0  0
   10.9061  -10.9625  -17.1794 O   0  0  0  0  0  0  0  0  0  0  0  0
   10.9839   -8.2475  -18.3216 O   0  0  0  0  0  0  0  0  0  0  0  0
   11.2098   -6.1846  -16.2704 O   0  0  0  0  0  0  0  0  0  0  0  0
    8.2627  -10.9431  -15.4272 H   0  0  0  0  0  0  0  0  0  0  0  0
   11.7997  -10.9941  -16.7840 H   0  0  0  0  0  0  0  0  0  0  0  0
   10.0688   -8.1681  -18.6387 H   0  0  0  0  0  0  0  0  0  0  0  0
   12.1425   -6.4629  -16.3068 H   0  0  0  0  0  0  0  0  0  0  0  0
    9.5420   -6.5754  -13.8751 C   0  0  0  0  0  0  0  0  0  0  0  0
    8.7055   -5.8121  -14.7475 O   0  0  0  0  0  0  0  0  0  0  0  0
    9.2629   -5.5854  -15.5173 H   0  0  0  0  0  0  0  0  0  0  0  0
 15  1  1  0
 15 16  1  0
  1  2  1  0
  1  6  1  0
  2  3  1  0
  2 10  1  0
  3  4  1  0
  3  9  1  0
  4  5  1  0
  4  8  1  0
  5  6  1  0
  5  7  1  0
  7 11  1  0
  8 12  1  0
  9 13  1  0
 10 14  1  0
 16 17  1  0
M  END
> <minimizedAffinity>
-3.29722

> <CNNscore>
0.8509134054

> <CNNaffinity>
2.7562611103

> <CNN_VS>
2.3453395367

> <CNNaffinity_variance>
0.3527759612

$$$$



 17 17  0  0  0  0  0  0  0  0999 V2000
   12.6035   -6.9541  -14.3749 C   0  0  0  0  0  0  0  0  0  0  0  0
   12.2817   -5.6604  -13.6249 C   0  0  0  0  0  0  0  0  0  0  0  0
   10.9380   -5.0911  -14.1151 C   0  0  0  0  0  0  0  0  0  0  0  0
    9.8242   -6.1537  -14.1238 C   0  0  0  0  0  0  0  0  0  0  0  0
   10.3223   -7.4686  -14.7636 C   0  0  0  0  0  0  0  0  0  0  0  0
   11.5447   -7.9061  -14.1909 O   0  0  0  0  0  0  0  0  0  0  0  0
    9.3839   -8.5165  -14.5890 O   0  0  0  0  0  0  0  0  0  0  0  0
    8.6643   -5.6527  -14.8038 O   0  0  0  0  0  0  0  0  0  0  0  0
   10.5580   -3.9679  -13.3014 O   0  0  0  0  0  0  0  0  0  0  0  0
   13.3369   -4.7110  -13.7906 O   0  0  0  0  0  0  0  0  0  0  0  0
    9.1857   -8.5561  -13.6390 H   0  0  0  0  0  0  0  0  0  0  0  0
    8.9131   -5.3981  -15.7143 H   0  0  0  0  0  0  0  0  0  0  0  0
   10.3846   -4.2785  -12.3972 H   0  0  0  0  0  0  0  0  0  0  0  0
   13.1762   -4.1908  -14.5982 H   0  0  0  0  0  0  0  0  0  0  0  0
   13.8934   -7.6017  -13.8636 C   0  0  0  0  0  0  0  0  0  0  0  0
   15.0158   -6.9784  -14.4921 O   0  0  0  0  0  0  0  0  0  0  0  0
   14.8275   -6.9988  -15.4507 H   0  0  0  0  0  0  0  0  0  0  0  0
 15  1  1  0
 15 16  1  0
  1  2  1  0
  1  6  1  0
  2  3  1  0
  2 10  1  0
  3  4  1  0
  3  9  1  0
  4  5  1  0
  4  8  1  0
  5  6  1  0
  5  7  1  0
  7 11  1  0
  8 12  1  0
  9 13  1  0
 10 14  1  0
 16 17  1  0
M  END
> <minimizedAffinity>
-4.03965

> <CNNscore>
0.8305672407

> <CNNaffinity>
2.8368785381

> <CNN_VS>
2.3562183380

> <CNNaffinity_variance>
0.2753534615

$$$$



 17 17  0  0  0  0  0  0  0  0999 V2000
    9.8073   -8.1535  -15.0471 C   0  0  0  0  0  0  0  0  0  0  0  0
   11.0955   -8.8782  -14.6530 C   0  0  0  0  0  0  0  0  0  0  0  0
   12.2777   -7.8923  -14.6712 C   0  0  0  0  0  0  0  0  0  0  0  0
   11.9710   -6.6014  -13.8905 C   0  0  0  0  0  0  0  0  0  0  0  0
   10.5743   -6.0535  -14.2589 C   0  0  0  0  0  0  0  0  0  0  0  0
    9.5706   -7.0516  -14.1578 O   0  0  0  0  0  0  0  0  0  0  0  0
   10.1922   -4.9925  -13.4002 O   0  0  0  0  0  0  0  0  0  0  0  0
   12.9919   -5.6218  -14.1287 O   0  0  0  0  0  0  0  0  0  0  0  0
   13.4544   -8.5316  -14.1472 O   0  0  0  0  0  0  0  0  0  0  0  0
   11.3324   -9.9858  -15.5243 O   0  0  0  0  0  0  0  0  0  0  0  0
   10.2923   -5.3209  -12.4917 H   0  0  0  0  0  0  0  0  0  0  0  0
   13.0479   -5.4460  -15.0888 H   0  0  0  0  0  0  0  0  0  0  0  0
   13.3107   -8.7346  -13.2079 H   0  0  0  0  0  0  0  0  0  0  0  0
   11.8341   -9.6807  -16.3015 H   0  0  0  0  0  0  0  0  0  0  0  0
    8.5881   -9.0763  -14.9648 C   0  0  0  0  0  0  0  0  0  0  0  0
    7.4391   -8.3088  -14.5988 O   0  0  0  0  0  0  0  0  0  0  0  0
    7.7005   -7.8033  -13.8045 H   0  0  0  0  0  0  0  0  0  0  0  0
 15  1  1  0
 15 16  1  0
  1  2  1  0
  1  6  1  0
  2  3  1  0
  2 10  1  0
  3  4  1  0
  3  9  1  0
  4  5  1  0
  4  8  1  0
  5  6  1  0
  5  7  1  0
  7 11  1  0
  8 12  1  0
  9 13  1  0
 10 14  1  0
 16 17  1  0
M  END
> <minimizedAffinity>
-4.00188

> <CNNscore>
0.8298477530

> <CNNaffinity>
2.6294281483

> <CNN_VS>
2.1820249557

> <CNNaffinity_variance>
0.4327476919

$$$$



 17 17  0  0  0  0  0  0  0  0999 V2000
    8.8412  -11.0702  -15.5356 C   0  0  0  0  0  0  0  0  0  0  0  0
   10.2814  -10.8695  -15.0609 C   0  0  0  0  0  0  0  0  0  0  0  0
   10.7260   -9.4212  -15.3345 C   0  0  0  0  0  0  0  0  0  0  0  0
    9.7031   -8.3916  -14.8212 C   0  0  0  0  0  0  0  0  0  0  0  0
    8.2676   -8.7906  -15.2296 C   0  0  0  0  0  0  0  0  0  0  0  0
    7.9720  -10.1339  -14.8807 O   0  0  0  0  0  0  0  0  0  0  0  0
    7.3021   -7.9737  -14.5896 O   0  0  0  0  0  0  0  0  0  0  0  0
   10.0335   -7.0805  -15.3013 O   0  0  0  0  0  0  0  0  0  0  0  0
   12.0168   -9.1874  -14.7451 O   0  0  0  0  0  0  0  0  0  0  0  0
   11.1526  -11.8068  -15.6971 O   0  0  0  0  0  0  0  0  0  0  0  0
    7.4967   -8.0071  -13.6387 H   0  0  0  0  0  0  0  0  0  0  0  0
   10.0565   -7.0948  -16.2785 H   0  0  0  0  0  0  0  0  0  0  0  0
   11.9372   -9.2478  -13.7786 H   0  0  0  0  0  0  0  0  0  0  0  0
   11.4618  -11.4344  -16.5423 H   0  0  0  0  0  0  0  0  0  0  0  0
    8.3263  -12.4752  -15.2106 C   0  0  0  0  0  0  0  0  0  0  0  0
    9.0876  -13.0186  -14.1296 O   0  0  0  0  0  0  0  0  0  0  0  0
   10.0245  -12.9085  -14.3841 H   0  0  0  0  0  0  0  0  0  0  0  0
 15  1  1  0
 15 16  1  0
  1  2  1  0
  1  6  1  0
  2  3  1  0
  2 10  1  0
  3  4  1  0
  3  9  1  0
  4  5  1  0
  4  8  1  0
  5  6  1  0
  5  7  1  0
  7 11  1  0
  8 12  1  0
  9 13  1  0
 10 14  1  0
 16 17  1  0
M  END
> <minimizedAffinity>
-3.50026

> <CNNscore>
0.8143025637

> <CNNaffinity>
2.5306875706

> <CNN_VS>
2.0607454777

> <CNNaffinity_variance>
0.5097492337

$$$$



 17 17  0  0  0  0  0  0  0  0999 V2000
   12.6205   -6.4757  -13.5397 C   0  0  0  0  0  0  0  0  0  0  0  0
   12.1726   -7.1799  -14.8216 C   0  0  0  0  0  0  0  0  0  0  0  0
   10.6538   -7.0114  -15.0085 C   0  0  0  0  0  0  0  0  0  0  0  0
   10.2083   -5.5453  -14.8603 C   0  0  0  0  0  0  0  0  0  0  0  0
   10.8543   -4.8964  -13.6160 C   0  0  0  0  0  0  0  0  0  0  0  0
   12.2602   -5.0868  -13.5894 O   0  0  0  0  0  0  0  0  0  0  0  0
   10.6244   -3.4981  -13.5841 O   0  0  0  0  0  0  0  0  0  0  0  0
    8.7769   -5.4639  -14.8037 O   0  0  0  0  0  0  0  0  0  0  0  0
   10.2590   -7.5320  -16.2896 O   0  0  0  0  0  0  0  0  0  0  0  0
   12.5393   -8.5607  -14.7876 O   0  0  0  0  0  0  0  0  0  0  0  0
   10.9149   -3.1494  -14.4428 H   0  0  0  0  0  0  0  0  0  0  0  0
    8.4557   -6.0052  -14.0558 H   0  0  0  0  0  0  0  0  0  0  0  0
   10.6602   -6.9881  -16.9877 H   0  0  0  0  0  0  0  0  0  0  0  0
   11.8316   -9.0697  -14.3533 H   0  0  0  0  0  0  0  0  0  0  0  0
   14.1386   -6.5469  -13.3529 C   0  0  0  0  0  0  0  0  0  0  0  0
   14.4519   -6.3850  -11.9676 O   0  0  0  0  0  0  0  0  0  0  0  0
   13.9805   -5.5781  -11.6822 H   0  0  0  0  0  0  0  0  0  0  0  0
 15  1  1  0
 15 16  1  0
  1  2  1  0
  1  6  1  0
  2  3  1  0
  2 10  1  0
  3  4  1  0
  3  9  1  0
  4  5  1  0
  4  8  1  0
  5  6  1  0
  5  7  1  0
  7 11  1  0
  8 12  1  0
  9 13  1  0
 10 14  1  0
 16 17  1  0
M  END
> <minimizedAffinity>
-3.66481

> <CNNscore>
0.8079189658

> <CNNaffinity>
2.6067867279

> <CNN_VS>
2.1060724258

> <CNNaffinity_variance>
0.3980343640

$$$$



 17 17  0  0  0  0  0  0  0  0999 V2000
   10.4884   -6.5009  -14.1547 C   0  0  0  0  0  0  0  0  0  0  0  0
   10.2257   -5.1175  -14.7522 C   0  0  0  0  0  0  0  0  0  0  0  0
   10.8177   -4.0306  -13.8367 C   0  0  0  0  0  0  0  0  0  0  0  0
   12.2786   -4.3262  -13.4517 C   0  0  0  0  0  0  0  0  0  0  0  0
   12.4465   -5.7993  -13.0175 C   0  0  0  0  0  0  0  0  0  0  0  0
   11.8985   -6.6975  -13.9696 O   0  0  0  0  0  0  0  0  0  0  0  0
   13.8137   -6.1405  -12.8642 O   0  0  0  0  0  0  0  0  0  0  0  0
   12.7123   -3.4286  -12.4197 O   0  0  0  0  0  0  0  0  0  0  0  0
   10.7138   -2.7458  -14.4744 O   0  0  0  0  0  0  0  0  0  0  0  0
    8.8251   -4.9177  -14.9533 O   0  0  0  0  0  0  0  0  0  0  0  0
   14.2568   -5.8895  -13.6913 H   0  0  0  0  0  0  0  0  0  0  0  0
   12.1205   -3.5207  -11.6470 H   0  0  0  0  0  0  0  0  0  0  0  0
   11.2764   -2.7411  -15.2666 H   0  0  0  0  0  0  0  0  0  0  0  0
    8.4330   -4.5545  -14.1390 H   0  0  0  0  0  0  0  0  0  0  0  0
    9.9881   -7.6204  -15.0718 C   0  0  0  0  0  0  0  0  0  0  0  0
   10.4295   -8.8809  -14.5621 O   0  0  0  0  0  0  0  0  0  0  0  0
   11.3913   -8.7859  -14.4178 H   0  0  0  0  0  0  0  0  0  0  0  0
 15  1  1  0
 15 16  1  0
  1  2  1  0
  1  6  1  0
  2  3  1  0
  2 10  1  0
  3  4  1  0
  3  9  1  0
  4  5  1  0
  4  8  1  0
  5  6  1  0
  5  7  1  0
  7 11  1  0
  8 12  1  0
  9 13  1  0
 10 14  1  0
 16 17  1  0
M  END
> <minimizedAffinity>
-3.98945

> <CNNscore>
0.7400543094

> <CNNaffinity>
2.8425121307

> <CNN_VS>
2.1036133766

> <CNNaffinity_variance>
0.2153010219

$$$$



 17 17  0  0  0  0  0  0  0  0999 V2000
   11.8802   -6.2995  -14.6178 C   0  0  0  0  0  0  0  0  0  0  0  0
   10.7512   -5.3424  -15.0040 C   0  0  0  0  0  0  0  0  0  0  0  0
   10.6645   -4.1949  -13.9815 C   0  0  0  0  0  0  0  0  0  0  0  0
   12.0344   -3.5426  -13.7212 C   0  0  0  0  0  0  0  0  0  0  0  0
   13.1235   -4.6166  -13.5037 C   0  0  0  0  0  0  0  0  0  0  0  0
   13.1241   -5.5871  -14.5389 O   0  0  0  0  0  0  0  0  0  0  0  0
   14.4184   -4.0409  -13.4738 O   0  0  0  0  0  0  0  0  0  0  0  0
   11.9552   -2.6498  -12.6008 O   0  0  0  0  0  0  0  0  0  0  0  0
    9.7146   -3.2126  -14.4296 O   0  0  0  0  0  0  0  0  0  0  0  0
    9.5106   -6.0453  -15.0989 O   0  0  0  0  0  0  0  0  0  0  0  0
   14.5040   -3.5083  -14.2814 H   0  0  0  0  0  0  0  0  0  0  0  0
   11.6492   -3.1475  -11.8170 H   0  0  0  0  0  0  0  0  0  0  0  0
   10.0488   -2.7997  -15.2433 H   0  0  0  0  0  0  0  0  0  0  0  0
    9.0868   -6.0673  -14.2222 H   0  0  0  0  0  0  0  0  0  0  0  0
   12.0581   -7.4151  -15.6515 C   0  0  0  0  0  0  0  0  0  0  0  0
   11.5947   -6.9578  -16.9241 O   0  0  0  0  0  0  0  0  0  0  0  0
   10.6987   -6.6010  -16.7670 H   0  0  0  0  0  0  0  0  0  0  0  0
 15  1  1  0
 15 16  1  0
  1  2  1  0
  1  6  1  0
  2  3  1  0
  2 10  1  0
  3  4  1  0
  3  9  1  0
  4  5  1  0
  4  8  1  0
  5  6  1  0
  5  7  1  0
  7 11  1  0
  8 12  1  0
  9 13  1  0
 10 14  1  0
 16 17  1  0
M  END
> <minimizedAffinity>
-3.45882

> <CNNscore>
0.6639609337

> <CNNaffinity>
2.6442606449

> <CNN_VS>
1.7556858063

> <CNNaffinity_variance>
0.2704931796

$$$$



 17 17  0  0  0  0  0  0  0  0999 V2000
   12.4384   -5.2703  -13.5744 C   0  0  0  0  0  0  0  0  0  0  0  0
   10.9407   -4.9593  -13.5700 C   0  0  0  0  0  0  0  0  0  0  0  0
   10.2617   -5.6359  -14.7747 C   0  0  0  0  0  0  0  0  0  0  0  0
   10.6352   -7.1247  -14.8928 C   0  0  0  0  0  0  0  0  0  0  0  0
   12.1573   -7.3261  -14.7208 C   0  0  0  0  0  0  0  0  0  0  0  0
   12.6464   -6.6906  -13.5501 O   0  0  0  0  0  0  0  0  0  0  0  0
   12.4883   -8.7003  -14.6160 O   0  0  0  0  0  0  0  0  0  0  0  0
   10.1804   -7.6535  -16.1466 O   0  0  0  0  0  0  0  0  0  0  0  0
    8.8352   -5.4791  -14.6823 O   0  0  0  0  0  0  0  0  0  0  0  0
   10.7234   -3.5469  -13.5800 O   0  0  0  0  0  0  0  0  0  0  0  0
   11.9301   -9.0673  -13.9110 H   0  0  0  0  0  0  0  0  0  0  0  0
   10.5756   -7.1341  -16.8744 H   0  0  0  0  0  0  0  0  0  0  0  0
    8.5144   -5.9673  -13.9059 H   0  0  0  0  0  0  0  0  0  0  0  0
   10.7068   -3.2317  -14.5015 H   0  0  0  0  0  0  0  0  0  0  0  0
   13.1440   -4.6847  -12.3481 C   0  0  0  0  0  0  0  0  0  0  0  0
   12.8627   -5.4994  -11.2077 O   0  0  0  0  0  0  0  0  0  0  0  0
   11.8910   -5.6000  -11.1875 H   0  0  0  0  0  0  0  0  0  0  0  0
 15  1  1  0
 15 16  1  0
  1  2  1  0
  1  6  1  0
  2  3  1  0
  2 10  1  0
  3  4  1  0
  3  9  1  0
  4  5  1  0
  4  8  1  0
  5  6  1  0
  5  7  1  0
  7 11  1  0
  8 12  1  0
  9 13  1  0
 10 14  1  0
 16 17  1  0
M  END
> <minimizedAffinity>
-4.08323

> <CNNscore>
0.6562628150

> <CNNaffinity>
2.7107131481

> <CNN_VS>
1.7789402008

> <CNNaffinity_variance>
0.3238514960

$$$$



 17 17  0  0  0  0  0  0  0  0999 V2000
   10.9774   -5.4580  -15.0344 C   0  0  0  0  0  0  0  0  0  0  0  0
   10.3561   -6.8187  -14.7142 C   0  0  0  0  0  0  0  0  0  0  0  0
   11.3906   -7.9347  -14.9473 C   0  0  0  0  0  0  0  0  0  0  0  0
   12.7349   -7.6350  -14.2597 C   0  0  0  0  0  0  0  0  0  0  0  0
   13.1778   -6.1792  -14.5269 C   0  0  0  0  0  0  0  0  0  0  0  0
   12.1477   -5.2496  -14.2295 O   0  0  0  0  0  0  0  0  0  0  0  0
   14.2976   -5.8256  -13.7332 O   0  0  0  0  0  0  0  0  0  0  0  0
   13.7342   -8.5690  -14.6931 O   0  0  0  0  0  0  0  0  0  0  0  0
   10.8614   -9.1929  -14.4944 O   0  0  0  0  0  0  0  0  0  0  0  0
    9.1818   -7.0296  -15.5008 O   0  0  0  0  0  0  0  0  0  0  0  0
   14.0637   -6.0354  -12.8141 H   0  0  0  0  0  0  0  0  0  0  0  0
   13.8187   -8.5178  -15.6657 H   0  0  0  0  0  0  0  0  0  0  0  0
   10.7437   -9.1564  -13.5306 H   0  0  0  0  0  0  0  0  0  0  0  0
    9.4337   -7.4321  -16.3512 H   0  0  0  0  0  0  0  0  0  0  0  0
   10.0101   -4.3081  -14.7397 C   0  0  0  0  0  0  0  0  0  0  0  0
   10.4026   -3.6601  -13.5276 O   0  0  0  0  0  0  0  0  0  0  0  0
   10.5010   -4.3727  -12.8663 H   0  0  0  0  0  0  0  0  0  0  0  0
 15  1  1  0
 15 16  1  0
  1  2  1  0
  1  6  1  0
  2  3  1  0
  2 10  1  0
  3  4  1  0
  3  9  1  0
  4  5  1  0
  4  8  1  0
  5  6  1  0
  5  7  1  0
  7 11  1  0
  8 12  1  0
  9 13  1  0
 10 14  1  0
 16 17  1  0
M  END
> <minimizedAffinity>
-3.31685

> <CNNscore>
0.6540221572

> <CNNaffinity>
2.7084932327

> <CNN_VS>
1.7714146376

> <CNNaffinity_variance>
0.2997867167

$$$$
