@<TRIPOS>MOLECULE
*****
 43 45 0 0 0
SMALL
GASTEIGER

@<TRIPOS>ATOM
      1 P          22.7050   71.3615   -2.3768 P.3     1  UNL1        0.2189
      2 O          22.2005   72.7880   -2.9507 O.co2   1  UNL1       -0.4371
      3 O          24.0256   70.8935   -2.9142 O.2     1  UNL1       -0.5170
      4 O          21.4508   70.3728   -2.6361 O.3     1  UNL1       -0.3112
      5 C          20.7727   70.4518   -3.8765 C.3     1  UNL1        0.1811
      6 O          18.8963   71.5991   -4.8462 O.3     1  UNL1       -0.3308
      7 O          17.2624   70.4119   -2.6298 O.3     1  UNL1       -0.3794
      8 O          16.6688   68.7917   -4.7413 O.3     1  UNL1       -0.3779
      9 C          18.3593   69.8455   -3.3471 C.3     1  UNL1        0.1713
     10 C          17.9226   69.4418   -4.7394 C.3     1  UNL1        0.1895
     11 C          19.3566   70.9590   -3.6364 C.3     1  UNL1        0.1764
     12 C          17.8891   70.7790   -5.4596 C.3     1  UNL1        0.2383
     13 H          16.6118   69.7192   -2.4335 H       1  UNL1        0.2105
     14 H          16.7425   67.9457   -4.2714 H       1  UNL1        0.2106
     15 O          15.9543   70.2366   -7.4443 O.2     1  UNL1       -0.2464
     16 O          19.1100   70.3224  -10.8026 O.2     1  UNL1       -0.2670
     17 N          18.1776   70.6544   -6.8603 N.ar    1  UNL1       -0.2551
     18 N          17.5281   70.2788   -9.1149 N.ar    1  UNL1       -0.2743
     19 C          17.1330   70.3804   -7.7745 C.ar    1  UNL1        0.3323
     20 C          19.4818   70.8047   -7.3158 C.ar    1  UNL1        0.0869
     21 C          19.8429   70.7052   -8.5966 C.ar    1  UNL1        0.0795
     22 C          18.8120   70.4198   -9.6161 C.ar    1  UNL1        0.2626
     23 H          16.8185   70.0865   -9.7698 H       1  UNL1        0.1734
     24 O          22.6694   71.5814   -0.7758 O.3     1  UNL1       -0.2703
     25 P          21.4275   71.6807    0.2546 P.3     1  UNL1        0.2208
     26 O          21.4172   70.2251    0.9627 O.co2   1  UNL1       -0.4371
     27 O          20.1255   72.0662   -0.3857 O.2     1  UNL1       -0.5170
     28 O          21.9317   72.6906    1.4071 O.3     1  UNL1       -0.2858
     29 O          23.3505   71.3391    2.7374 O.3     1  UNL1       -0.3226
     30 O          23.9400   75.0726    4.4052 O.3     1  UNL1       -0.3794
     31 O          21.2584   74.1961    3.6468 O.3     1  UNL1       -0.3775
     32 O          25.9646   73.9129    2.6712 O.3     1  UNL1       -0.3792
     33 C          23.6666   74.1414    3.3582 C.3     1  UNL1        0.1718
     34 C          22.4019   73.3507    3.6939 C.3     1  UNL1        0.1968
     35 C          24.8669   73.1997    3.2376 C.3     1  UNL1        0.1723
     36 C          22.2053   72.1920    2.7153 C.3     1  UNL1        0.2706
     37 C          24.5492   72.0039    2.3444 C.3     1  UNL1        0.1830
     38 H          23.1907   75.6815    4.5003 H       1  UNL1        0.2105
     39 H          21.3764   74.9337    4.2652 H       1  UNL1        0.2106
     40 H          26.1769   74.6767    3.2301 H       1  UNL1        0.2106
     41 O          25.0081   69.7334    2.7126 O.co2   1  UNL1       -0.5466
     42 O          26.7936   71.1223    2.4263 O.co2   1  UNL1       -0.5466
     43 C          25.5873   70.9398    2.4936 C.2     1  UNL1        0.0799
@<TRIPOS>UNITY_ATOM_ATTR
2 1
charge -1
26 1
charge -1
41 1
charge -1
@<TRIPOS>BOND
     1     1     4    1
     2     1    24    1
     3     1     2    1
     4     1     3    2
     5    25    28    1
     6    25    24    1
     7    25    26    1
     8    25    27    2
     9     6    11    1
    10     6    12    1
    11    29    36    1
    12    29    37    1
    13     7     9    1
    14     7    13    1
    15     8    10    1
    16     8    14    1
    17     4     5    1
    18    28    36    1
    19    30    33    1
    20    30    38    1
    21    31    34    1
    22    31    39    1
    23    32    35    1
    24    32    40    1
    25    41    43   ar
    26    15    19    2
    27    42    43   ar
    28    16    22    2
    29    17    12    1
    30    17    19   ar
    31    17    20   ar
    32    18    19   ar
    33    18    22   ar
    34    18    23    1
    35     9    10    1
    36     9    11    1
    37    10    12    1
    38    11     5    1
    39    33    34    1
    40    33    35    1
    41    34    36    1
    42    35    37    1
    43    37    43    1
    44    20    21   ar
    45    21    22   ar
@<TRIPOS>MOLECULE
*****
 43 45 0 0 0
SMALL
GASTEIGER

@<TRIPOS>ATOM
      1 P          21.5026   72.2658   -4.8061 P.3     1  UNL1        0.2189
      2 O          20.6984   73.6679   -4.8856 O.co2   1  UNL1       -0.4371
      3 O          22.6487   72.1375   -5.7662 O.2     1  UNL1       -0.5170
      4 O          20.3436   71.1449   -4.9417 O.3     1  UNL1       -0.3112
      5 C          19.7191   70.6720   -3.7623 C.3     1  UNL1        0.1811
      6 O          17.9576   71.6359   -5.0835 O.3     1  UNL1       -0.3308
      7 O          16.0582   70.3499   -3.1522 O.3     1  UNL1       -0.3794
      8 O          15.9852   68.6486   -5.2821 O.3     1  UNL1       -0.3779
      9 C          17.3081   69.8683   -3.6467 C.3     1  UNL1        0.1713
     10 C          17.1609   69.4046   -5.0804 C.3     1  UNL1        0.1895
     11 C          18.2461   71.0589   -3.7916 C.3     1  UNL1        0.1764
     12 C          17.1465   70.7215   -5.8379 C.3     1  UNL1        0.2383
     13 H          15.4421   69.6070   -3.0514 H       1  UNL1        0.2105
     14 H          16.0433   67.8203   -4.7796 H       1  UNL1        0.2106
     15 O          15.6000   70.7116   -8.2011 O.2     1  UNL1       -0.2464
     16 O          19.3351   70.2434  -10.8607 O.2     1  UNL1       -0.2670
     17 N          17.6891   70.5984   -7.1612 N.ar    1  UNL1       -0.2551
     18 N          17.4617   70.4774   -9.5234 N.ar    1  UNL1       -0.2743
     19 C          16.8251   70.6044   -8.2818 C.ar    1  UNL1        0.3323
     20 C          19.0617   70.4753   -7.3393 C.ar    1  UNL1        0.0869
     21 C          19.6539   70.3551   -8.5292 C.ar    1  UNL1        0.0795
     22 C          18.8226   70.3516   -9.7508 C.ar    1  UNL1        0.2626
     23 H          16.8806   70.4769  -10.3182 H       1  UNL1        0.1734
     24 O          21.9170   72.1731   -3.2465 O.3     1  UNL1       -0.2703
     25 P          23.3661   72.0629   -2.5380 P.3     1  UNL1        0.2208
     26 O          24.0666   73.4747   -2.9072 O.co2   1  UNL1       -0.4371
     27 O          24.1592   70.8543   -2.9432 O.2     1  UNL1       -0.5170
     28 O          23.0576   72.1623   -0.9577 O.3     1  UNL1       -0.2858
     29 O          24.3292   70.9697    0.6454 O.3     1  UNL1       -0.3226
     30 O          20.8662   71.7749    2.7494 O.3     1  UNL1       -0.3794
     31 O          20.7389   70.9278   -0.0436 O.3     1  UNL1       -0.3775
     32 O          23.2870   73.2916    3.2882 O.3     1  UNL1       -0.3792
     33 C          21.8944   72.0189    1.7896 C.3     1  UNL1        0.1718
     34 C          21.9123   70.8885    0.7603 C.3     1  UNL1        0.1968
     35 C          23.2303   72.0826    2.5335 C.3     1  UNL1        0.1723
     36 C          23.1402   70.9927   -0.1454 C.3     1  UNL1        0.2706
     37 C          24.4091   72.0565    1.5649 C.3     1  UNL1        0.1830
     38 H          20.0077   71.7303    2.2996 H       1  UNL1        0.2105
     39 H          19.9559   70.8624    0.5247 H       1  UNL1        0.2106
     40 H          22.5419   73.3207    3.9086 H       1  UNL1        0.2106
     41 O          26.1211   72.9057    2.9248 O.co2   1  UNL1       -0.5466
     42 O          26.2657   70.7125    2.3184 O.co2   1  UNL1       -0.5466
     43 C          25.6868   71.7881    2.2914 C.2     1  UNL1        0.0799
@<TRIPOS>UNITY_ATOM_ATTR
2 1
charge -1
26 1
charge -1
41 1
charge -1
@<TRIPOS>BOND
     1     1     4    1
     2     1    24    1
     3     1     2    1
     4     1     3    2
     5    25    28    1
     6    25    24    1
     7    25    26    1
     8    25    27    2
     9     6    11    1
    10     6    12    1
    11    29    36    1
    12    29    37    1
    13     7     9    1
    14     7    13    1
    15     8    10    1
    16     8    14    1
    17     4     5    1
    18    28    36    1
    19    30    33    1
    20    30    38    1
    21    31    34    1
    22    31    39    1
    23    32    35    1
    24    32    40    1
    25    41    43   ar
    26    15    19    2
    27    42    43   ar
    28    16    22    2
    29    17    12    1
    30    17    19   ar
    31    17    20   ar
    32    18    19   ar
    33    18    22   ar
    34    18    23    1
    35     9    10    1
    36     9    11    1
    37    10    12    1
    38    11     5    1
    39    33    34    1
    40    33    35    1
    41    34    36    1
    42    35    37    1
    43    37    43    1
    44    20    21   ar
    45    21    22   ar
@<TRIPOS>MOLECULE
*****
 43 45 0 0 0
SMALL
GASTEIGER

@<TRIPOS>ATOM
      1 P          23.4525   71.8220   -3.2179 P.3     1  UNL1        0.2189
      2 O          24.1435   72.9941   -4.0941 O.co2   1  UNL1       -0.4371
      3 O          24.3044   70.6055   -3.0032 O.2     1  UNL1       -0.5170
      4 O          22.0368   71.5666   -3.9586 O.3     1  UNL1       -0.3112
      5 C          21.6349   72.4642   -4.9770 C.3     1  UNL1        0.1811
      6 O          20.6756   70.5072   -5.9907 O.3     1  UNL1       -0.3308
      7 O          21.0099   71.9278   -8.6102 O.3     1  UNL1       -0.3794
      8 O          18.3600   72.2831   -8.0736 O.3     1  UNL1       -0.3779
      9 C          20.6684   72.4606   -7.3304 C.3     1  UNL1        0.1713
     10 C          19.2378   72.1089   -6.9810 C.3     1  UNL1        0.1895
     11 C          21.4523   71.6906   -6.2764 C.3     1  UNL1        0.1764
     12 C          19.3646   70.6551   -6.5587 C.3     1  UNL1        0.2383
     13 H          20.5212   72.4041   -9.3000 H       1  UNL1        0.2105
     14 H          18.3134   73.2247   -8.3039 H       1  UNL1        0.2106
     15 O          16.7353   69.8212   -7.1654 O.2     1  UNL1       -0.2464
     16 O          15.6942   69.2483   -2.7121 O.2     1  UNL1       -0.2670
     17 N          18.3857   70.2822   -5.5772 N.ar    1  UNL1       -0.2551
     18 N          16.2190   69.5377   -4.9468 N.ar    1  UNL1       -0.2743
     19 C          17.0931   69.8782   -5.9874 C.ar    1  UNL1        0.3323
     20 C          18.7097   70.3169   -4.2264 C.ar    1  UNL1        0.0869
     21 C          17.8658   69.9893   -3.2459 C.ar    1  UNL1        0.0795
     22 C          16.4951   69.5571   -3.5892 C.ar    1  UNL1        0.2626
     23 H          15.3126   69.2552   -5.2077 H       1  UNL1        0.1734
     24 O          23.0202   72.5891   -1.8624 O.3     1  UNL1       -0.2703
     25 P          21.5749   72.7735   -1.1620 P.3     1  UNL1        0.2208
     26 O          20.9116   71.3024   -1.2897 O.co2   1  UNL1       -0.4371
     27 O          20.7441   73.8792   -1.7460 O.2     1  UNL1       -0.5170
     28 O          21.8997   72.9387    0.4096 O.3     1  UNL1       -0.2858
     29 O          22.9769   71.1114    1.4631 O.3     1  UNL1       -0.3226
     30 O          21.8015   73.3799    4.7097 O.3     1  UNL1       -0.3794
     31 O          20.0010   72.9966    2.4412 O.3     1  UNL1       -0.3775
     32 O          24.5842   73.3680    3.8686 O.3     1  UNL1       -0.3792
     33 C          22.2372   73.1500    3.3698 C.3     1  UNL1        0.1718
     34 C          21.2134   72.2791    2.6411 C.3     1  UNL1        0.1968
     35 C          23.5927   72.4421    3.4282 C.3     1  UNL1        0.1723
     36 C          21.7510   71.8218    1.2844 C.3     1  UNL1        0.2706
     37 C          24.0003   71.9054    2.0591 C.3     1  UNL1        0.1830
     38 H          20.9416   73.8290    4.6977 H       1  UNL1        0.2105
     39 H          19.6544   73.2900    3.2981 H       1  UNL1        0.2106
     40 H          24.3366   73.7171    4.7390 H       1  UNL1        0.2106
     41 O          24.7535   69.6962    1.8274 O.co2   1  UNL1       -0.5466
     42 O          26.2671   71.2407    2.5504 O.co2   1  UNL1       -0.5466
     43 C          25.1395   70.9466    2.1829 C.2     1  UNL1        0.0799
@<TRIPOS>UNITY_ATOM_ATTR
2 1
charge -1
26 1
charge -1
41 1
charge -1
@<TRIPOS>BOND
     1     1     4    1
     2     1    24    1
     3     1     2    1
     4     1     3    2
     5    25    28    1
     6    25    24    1
     7    25    26    1
     8    25    27    2
     9     6    11    1
    10     6    12    1
    11    29    36    1
    12    29    37    1
    13     7     9    1
    14     7    13    1
    15     8    10    1
    16     8    14    1
    17     4     5    1
    18    28    36    1
    19    30    33    1
    20    30    38    1
    21    31    34    1
    22    31    39    1
    23    32    35    1
    24    32    40    1
    25    41    43   ar
    26    15    19    2
    27    42    43   ar
    28    16    22    2
    29    17    12    1
    30    17    19   ar
    31    17    20   ar
    32    18    19   ar
    33    18    22   ar
    34    18    23    1
    35     9    10    1
    36     9    11    1
    37    10    12    1
    38    11     5    1
    39    33    34    1
    40    33    35    1
    41    34    36    1
    42    35    37    1
    43    37    43    1
    44    20    21   ar
    45    21    22   ar
@<TRIPOS>MOLECULE
*****
 43 45 0 0 0
SMALL
GASTEIGER

@<TRIPOS>ATOM
      1 P          19.8866   72.2767   -1.6787 P.3     1  UNL1        0.2189
      2 O          18.4648   72.9784   -1.3547 O.co2   1  UNL1       -0.4371
      3 O          20.7466   73.0129   -2.6637 O.2     1  UNL1       -0.5170
      4 O          19.4885   70.7627   -2.0877 O.3     1  UNL1       -0.3112
      5 C          19.1169   70.4999   -3.4283 C.3     1  UNL1        0.1811
      6 O          17.4258   71.4317   -4.8599 O.3     1  UNL1       -0.3308
      7 O          15.4548   69.8378   -3.2580 O.3     1  UNL1       -0.3794
      8 O          15.7557   68.3260   -5.5074 O.3     1  UNL1       -0.3779
      9 C          16.7872   69.5010   -3.6453 C.3     1  UNL1        0.1713
     10 C          16.8327   69.1525   -5.1179 C.3     1  UNL1        0.1895
     11 C          17.6268   70.7701   -3.5922 C.3     1  UNL1        0.1764
     12 C          16.7819   70.5244   -5.7685 C.3     1  UNL1        0.2383
     13 H          14.8994   69.0425   -3.2842 H       1  UNL1        0.2105
     14 H          15.8335   67.4646   -5.0669 H       1  UNL1        0.2106
     15 O          15.4992   70.5553   -8.2844 O.2     1  UNL1       -0.2464
     16 O          19.5191   70.6578  -10.5369 O.2     1  UNL1       -0.2670
     17 N          17.4692   70.5591   -7.0284 N.ar    1  UNL1       -0.2551
     18 N          17.5026   70.6053   -9.4039 N.ar    1  UNL1       -0.2743
     19 C          16.7305   70.5720   -8.2352 C.ar    1  UNL1        0.3323
     20 C          18.8582   70.5817   -7.0604 C.ar    1  UNL1        0.0869
     21 C          19.5802   70.6135   -8.1822 C.ar    1  UNL1        0.0795
     22 C          18.8854   70.6281   -9.4863 C.ar    1  UNL1        0.2626
     23 H          17.0106   70.6128  -10.2567 H       1  UNL1        0.1734
     24 O          20.5445   72.0962   -0.2133 O.3     1  UNL1       -0.2703
     25 P          21.8386   71.2583    0.2733 P.3     1  UNL1        0.2208
     26 O          22.6417   70.9844   -1.1053 O.co2   1  UNL1       -0.4371
     27 O          21.5115   70.0190    1.0551 O.2     1  UNL1       -0.5170
     28 O          22.7458   72.3305    1.0669 O.3     1  UNL1       -0.2858
     29 O          24.3320   73.7030   -0.0329 O.3     1  UNL1       -0.3226
     30 O          25.6905   73.8075    3.8673 O.3     1  UNL1       -0.3794
     31 O          24.7555   71.3020    2.6915 O.3     1  UNL1       -0.3775
     32 O          24.2835   76.0931    2.7504 O.3     1  UNL1       -0.3792
     33 C          24.7140   73.7239    2.8293 C.3     1  UNL1        0.1718
     34 C          24.9955   72.4984    1.9595 C.3     1  UNL1        0.1968
     35 C          24.8027   75.0021    1.9925 C.3     1  UNL1        0.1723
     36 C          24.1159   72.5017    0.7085 C.3     1  UNL1        0.2706
     37 C          23.9992   74.8793    0.7010 C.3     1  UNL1        0.1830
     38 H          25.6528   73.0058    4.4123 H       1  UNL1        0.2105
     39 H          25.3101   71.2933    3.4869 H       1  UNL1        0.2106
     40 H          24.7861   76.1820    3.5752 H       1  UNL1        0.2106
     41 O          24.8849   75.4729   -1.3882 O.co2   1  UNL1       -0.5466
     42 O          24.1807   77.1692   -0.0370 O.co2   1  UNL1       -0.5466
     43 C          24.3505   75.9779   -0.2488 C.2     1  UNL1        0.0799
@<TRIPOS>UNITY_ATOM_ATTR
2 1
charge -1
26 1
charge -1
41 1
charge -1
@<TRIPOS>BOND
     1     1     4    1
     2     1    24    1
     3     1     2    1
     4     1     3    2
     5    25    28    1
     6    25    24    1
     7    25    26    1
     8    25    27    2
     9     6    11    1
    10     6    12    1
    11    29    36    1
    12    29    37    1
    13     7     9    1
    14     7    13    1
    15     8    10    1
    16     8    14    1
    17     4     5    1
    18    28    36    1
    19    30    33    1
    20    30    38    1
    21    31    34    1
    22    31    39    1
    23    32    35    1
    24    32    40    1
    25    41    43   ar
    26    15    19    2
    27    42    43   ar
    28    16    22    2
    29    17    12    1
    30    17    19   ar
    31    17    20   ar
    32    18    19   ar
    33    18    22   ar
    34    18    23    1
    35     9    10    1
    36     9    11    1
    37    10    12    1
    38    11     5    1
    39    33    34    1
    40    33    35    1
    41    34    36    1
    42    35    37    1
    43    37    43    1
    44    20    21   ar
    45    21    22   ar
@<TRIPOS>MOLECULE
*****
 43 45 0 0 0
SMALL
GASTEIGER

@<TRIPOS>ATOM
      1 P          21.7544   72.2011   -5.7080 P.3     1  UNL1        0.2189
      2 O          20.8014   73.4818   -5.4424 O.co2   1  UNL1       -0.4371
      3 O          23.0829   72.5180   -6.3296 O.2     1  UNL1       -0.5170
      4 O          20.8134   71.1829   -6.5422 O.3     1  UNL1       -0.3112
      5 C          20.2600   71.6244   -7.7683 C.3     1  UNL1        0.1811
      6 O          18.8644   69.7195   -7.3198 O.3     1  UNL1       -0.3308
      7 O          17.9787   69.9296  -10.1769 O.3     1  UNL1       -0.3794
      8 O          15.9088   71.0805   -8.8251 O.3     1  UNL1       -0.3779
      9 C          18.3000   70.9685   -9.2517 C.3     1  UNL1        0.1713
     10 C          17.1904   71.1253   -8.2335 C.3     1  UNL1        0.1895
     11 C          19.4585   70.4874   -8.3888 C.3     1  UNL1        0.1764
     12 C          17.4469   69.9511   -7.3043 C.3     1  UNL1        0.2383
     13 H          17.2408   70.2139  -10.7394 H       1  UNL1        0.2105
     14 H          15.7943   71.8488   -9.4070 H       1  UNL1        0.2106
     15 O          16.1377   68.0838   -5.6383 O.2     1  UNL1       -0.2464
     16 O          15.9022   71.0864   -2.1494 O.2     1  UNL1       -0.2670
     17 N          17.0323   70.2185   -5.9561 N.ar    1  UNL1       -0.2551
     18 N          16.0207   69.5814   -3.9026 N.ar    1  UNL1       -0.2743
     19 C          16.3818   69.2113   -5.2048 C.ar    1  UNL1        0.3323
     20 C          17.2720   71.4652   -5.3911 C.ar    1  UNL1        0.0869
     21 C          16.9221   71.8031   -4.1485 C.ar    1  UNL1        0.0795
     22 C          16.2372   70.8085   -3.2969 C.ar    1  UNL1        0.2626
     23 H          15.5647   68.8974   -3.3608 H       1  UNL1        0.1734
     24 O          21.8412   71.5052   -4.2517 O.3     1  UNL1       -0.2703
     25 P          22.7371   71.8652   -2.9550 P.3     1  UNL1        0.2208
     26 O          24.1527   71.1470   -3.2725 O.co2   1  UNL1       -0.4371
     27 O          22.1185   71.4619   -1.6478 O.2     1  UNL1       -0.5170
     28 O          23.0413   73.4434   -3.0930 O.3     1  UNL1       -0.2858
     29 O          24.8430   74.6842   -4.0005 O.3     1  UNL1       -0.3226
     30 O          23.8593   76.9367   -0.6799 O.3     1  UNL1       -0.3794
     31 O          23.9328   74.0205   -0.5223 O.3     1  UNL1       -0.3775
     32 O          23.0870   77.8361   -3.3342 O.3     1  UNL1       -0.3792
     33 C          23.6117   76.0672   -1.7848 C.3     1  UNL1        0.1718
     34 C          24.4250   74.7834   -1.6180 C.3     1  UNL1        0.1968
     35 C          24.0269   76.7979   -3.0637 C.3     1  UNL1        0.1723
     36 C          24.3661   73.9299   -2.8856 C.3     1  UNL1        0.2706
     37 C          24.0646   75.8504   -4.2593 C.3     1  UNL1        0.1830
     38 H          23.6030   76.4935    0.1443 H       1  UNL1        0.2105
     39 H          23.9670   74.5560    0.2853 H       1  UNL1        0.2106
     40 H          23.0533   78.4461   -2.5808 H       1  UNL1        0.2106
     41 O          26.0053   75.9298   -5.5742 O.co2   1  UNL1       -0.5466
     42 O          24.3202   77.3660   -6.1192 O.co2   1  UNL1       -0.5466
     43 C          24.7762   76.4796   -5.4126 C.2     1  UNL1        0.0799
@<TRIPOS>UNITY_ATOM_ATTR
2 1
charge -1
26 1
charge -1
41 1
charge -1
@<TRIPOS>BOND
     1     1     4    1
     2     1    24    1
     3     1     2    1
     4     1     3    2
     5    25    28    1
     6    25    24    1
     7    25    26    1
     8    25    27    2
     9     6    11    1
    10     6    12    1
    11    29    36    1
    12    29    37    1
    13     7     9    1
    14     7    13    1
    15     8    10    1
    16     8    14    1
    17     4     5    1
    18    28    36    1
    19    30    33    1
    20    30    38    1
    21    31    34    1
    22    31    39    1
    23    32    35    1
    24    32    40    1
    25    41    43   ar
    26    15    19    2
    27    42    43   ar
    28    16    22    2
    29    17    12    1
    30    17    19   ar
    31    17    20   ar
    32    18    19   ar
    33    18    22   ar
    34    18    23    1
    35     9    10    1
    36     9    11    1
    37    10    12    1
    38    11     5    1
    39    33    34    1
    40    33    35    1
    41    34    36    1
    42    35    37    1
    43    37    43    1
    44    20    21   ar
    45    21    22   ar
@<TRIPOS>MOLECULE
*****
 43 45 0 0 0
SMALL
GASTEIGER

@<TRIPOS>ATOM
      1 P          20.0163   71.9309   -1.7136 P.3     1  UNL1        0.2189
      2 O          20.4623   70.6380   -0.8484 O.co2   1  UNL1       -0.4371
      3 O          18.7869   72.6328   -1.2159 O.2     1  UNL1       -0.5170
      4 O          19.9424   71.3759   -3.2316 O.3     1  UNL1       -0.3112
      5 C          19.1887   70.2050   -3.4875 C.3     1  UNL1        0.1811
      6 O          17.5487   71.3076   -4.8561 O.3     1  UNL1       -0.3308
      7 O          15.4924   69.7818   -3.2956 O.3     1  UNL1       -0.3794
      8 O          15.6670   68.3503   -5.6100 O.3     1  UNL1       -0.3779
      9 C          16.7949   69.3738   -3.7145 C.3     1  UNL1        0.1713
     10 C          16.8012   69.0859   -5.2009 C.3     1  UNL1        0.1895
     11 C          17.7184   70.5807   -3.6199 C.3     1  UNL1        0.1764
     12 C          16.8357   70.4846   -5.7929 C.3     1  UNL1        0.2383
     13 H          14.8845   69.0272   -3.3474 H       1  UNL1        0.2105
     14 H          15.6915   67.4678   -5.2069 H       1  UNL1        0.2106
     15 O          15.5275   70.5639   -8.2946 O.2     1  UNL1       -0.2464
     16 O          19.5248   70.6454  -10.5877 O.2     1  UNL1       -0.2670
     17 N          17.5103   70.5270   -7.0594 N.ar    1  UNL1       -0.2551
     18 N          17.5196   70.6034   -9.4344 N.ar    1  UNL1       -0.2743
     19 C          16.7594   70.5646   -8.2581 C.ar    1  UNL1        0.3323
     20 C          18.8991   70.5327   -7.1058 C.ar    1  UNL1        0.0869
     21 C          19.6097   70.5700   -8.2346 C.ar    1  UNL1        0.0795
     22 C          18.9017   70.6100   -9.5310 C.ar    1  UNL1        0.2626
     23 H          17.0189   70.6280  -10.2817 H       1  UNL1        0.1734
     24 O          21.3530   72.8396   -1.7236 O.3     1  UNL1       -0.2703
     25 P          22.8863   72.4762   -1.3623 P.3     1  UNL1        0.2208
     26 O          23.7176   73.7164   -1.9876 O.co2   1  UNL1       -0.4371
     27 O          23.3301   71.1267   -1.8479 O.2     1  UNL1       -0.5170
     28 O          22.9900   72.6804    0.2346 O.3     1  UNL1       -0.2858
     29 O          24.5346   71.4446    1.5369 O.3     1  UNL1       -0.3226
     30 O          21.8341   72.6985    4.4010 O.3     1  UNL1       -0.3794
     31 O          20.9000   71.7335    1.8067 O.3     1  UNL1       -0.3775
     32 O          24.4310   73.9863    4.1810 O.3     1  UNL1       -0.3792
     33 C          22.5882   72.7899    3.1923 C.3     1  UNL1        0.1718
     34 C          22.2367   71.6146    2.2797 C.3     1  UNL1        0.1968
     35 C          24.0738   72.7540    3.5579 C.3     1  UNL1        0.1723
     36 C          23.1850   71.5495    1.0817 C.3     1  UNL1        0.2706
     37 C          24.9473   72.5612    2.3217 C.3     1  UNL1        0.1830
     38 H          20.8866   72.7194    4.1935 H       1  UNL1        0.2105
     39 H          20.2928   71.7757    2.5616 H       1  UNL1        0.2106
     40 H          23.8822   74.1211    4.9693 H       1  UNL1        0.2106
     41 O          26.6355   70.9330    2.3259 O.co2   1  UNL1       -0.5466
     42 O          27.1238   72.9400    3.2916 O.co2   1  UNL1       -0.5466
     43 C          26.3441   72.2004    2.7101 C.2     1  UNL1        0.0799
@<TRIPOS>UNITY_ATOM_ATTR
2 1
charge -1
26 1
charge -1
41 1
charge -1
@<TRIPOS>BOND
     1     1     4    1
     2     1    24    1
     3     1     2    1
     4     1     3    2
     5    25    28    1
     6    25    24    1
     7    25    26    1
     8    25    27    2
     9     6    11    1
    10     6    12    1
    11    29    36    1
    12    29    37    1
    13     7     9    1
    14     7    13    1
    15     8    10    1
    16     8    14    1
    17     4     5    1
    18    28    36    1
    19    30    33    1
    20    30    38    1
    21    31    34    1
    22    31    39    1
    23    32    35    1
    24    32    40    1
    25    41    43   ar
    26    15    19    2
    27    42    43   ar
    28    16    22    2
    29    17    12    1
    30    17    19   ar
    31    17    20   ar
    32    18    19   ar
    33    18    22   ar
    34    18    23    1
    35     9    10    1
    36     9    11    1
    37    10    12    1
    38    11     5    1
    39    33    34    1
    40    33    35    1
    41    34    36    1
    42    35    37    1
    43    37    43    1
    44    20    21   ar
    45    21    22   ar
@<TRIPOS>MOLECULE
*****
 43 45 0 0 0
SMALL
GASTEIGER

@<TRIPOS>ATOM
      1 P          20.0113   72.2853   -1.4941 P.3     1  UNL1        0.2189
      2 O          18.5663   72.9040   -1.1093 O.co2   1  UNL1       -0.4371
      3 O          20.7924   73.0785   -2.5004 O.2     1  UNL1       -0.5170
      4 O          19.6816   70.7562   -1.9077 O.3     1  UNL1       -0.3112
      5 C          19.2678   70.4889   -3.2350 C.3     1  UNL1        0.1811
      6 O          17.5566   71.4717   -4.6075 O.3     1  UNL1       -0.3308
      7 O          15.6022   69.8699   -2.9931 O.3     1  UNL1       -0.3794
      8 O          15.8314   68.4014   -5.2794 O.3     1  UNL1       -0.3779
      9 C          16.9208   69.5244   -3.4181 C.3     1  UNL1        0.1713
     10 C          16.9278   69.2059   -4.8982 C.3     1  UNL1        0.1895
     11 C          17.7780   70.7813   -3.3586 C.3     1  UNL1        0.1764
     12 C          16.8801   70.5916   -5.5192 C.3     1  UNL1        0.2383
     13 H          15.0359   69.0824   -3.0227 H       1  UNL1        0.2105
     14 H          15.9079   67.5302   -4.8586 H       1  UNL1        0.2106
     15 O          15.5790   70.2444   -8.0017 O.2     1  UNL1       -0.2464
     16 O          19.5064   70.8124  -10.3463 O.2     1  UNL1       -0.2670
     17 N          17.5386   70.6438   -6.7938 N.ar    1  UNL1       -0.2551
     18 N          17.5365   70.5266   -9.1671 N.ar    1  UNL1       -0.2743
     19 C          16.7930   70.4561   -7.9816 C.ar    1  UNL1        0.3323
     20 C          18.9064   70.8803   -6.8587 C.ar    1  UNL1        0.0869
     21 C          19.6012   70.9448   -7.9961 C.ar    1  UNL1        0.0795
     22 C          18.8976   70.7587   -9.2821 C.ar    1  UNL1        0.2626
     23 H          17.0395   70.3970  -10.0070 H       1  UNL1        0.1734
     24 O          20.7323   72.1255   -0.0563 O.3     1  UNL1       -0.2703
     25 P          21.9714   71.1990    0.4127 P.3     1  UNL1        0.2208
     26 O          22.8836   71.0986   -0.9208 O.co2   1  UNL1       -0.4371
     27 O          21.5657   69.8720    0.9858 O.2     1  UNL1       -0.5170
     28 O          22.8215   72.1309    1.4184 O.3     1  UNL1       -0.2858
     29 O          22.1187   73.8370    2.9030 O.3     1  UNL1       -0.3226
     30 O          25.8332   75.2172    1.7343 O.3     1  UNL1       -0.3794
     31 O          24.0089   74.0393   -0.2199 O.3     1  UNL1       -0.3775
     32 O          25.4783   74.0322    4.3650 O.3     1  UNL1       -0.3792
     33 C          24.8484   74.2324    2.0481 C.3     1  UNL1        0.1718
     34 C          23.6503   74.3903    1.1116 C.3     1  UNL1        0.1968
     35 C          24.4184   74.4402    3.5020 C.3     1  UNL1        0.1723
     36 C          22.4841   73.5094    1.5619 C.3     1  UNL1        0.2706
     37 C          23.1743   73.6227    3.8373 C.3     1  UNL1        0.1830
     38 H          26.1215   75.1048    0.8148 H       1  UNL1        0.2105
     39 H          24.7485   74.5942   -0.5121 H       1  UNL1        0.2106
     40 H          26.2762   74.5448    4.1619 H       1  UNL1        0.2106
     41 O          22.5750   73.0646    6.0352 O.co2   1  UNL1       -0.5466
     42 O          22.1452   75.1963    5.3493 O.co2   1  UNL1       -0.5466
     43 C          22.5754   74.0739    5.1295 C.2     1  UNL1        0.0799
@<TRIPOS>UNITY_ATOM_ATTR
2 1
charge -1
26 1
charge -1
41 1
charge -1
@<TRIPOS>BOND
     1     1     4    1
     2     1    24    1
     3     1     2    1
     4     1     3    2
     5    25    28    1
     6    25    24    1
     7    25    26    1
     8    25    27    2
     9     6    11    1
    10     6    12    1
    11    29    36    1
    12    29    37    1
    13     7     9    1
    14     7    13    1
    15     8    10    1
    16     8    14    1
    17     4     5    1
    18    28    36    1
    19    30    33    1
    20    30    38    1
    21    31    34    1
    22    31    39    1
    23    32    35    1
    24    32    40    1
    25    41    43   ar
    26    15    19    2
    27    42    43   ar
    28    16    22    2
    29    17    12    1
    30    17    19   ar
    31    17    20   ar
    32    18    19   ar
    33    18    22   ar
    34    18    23    1
    35     9    10    1
    36     9    11    1
    37    10    12    1
    38    11     5    1
    39    33    34    1
    40    33    35    1
    41    34    36    1
    42    35    37    1
    43    37    43    1
    44    20    21   ar
    45    21    22   ar
@<TRIPOS>MOLECULE
*****
 43 45 0 0 0
SMALL
GASTEIGER

@<TRIPOS>ATOM
      1 P          23.1967   72.0186   -3.1979 P.3     1  UNL1        0.2189
      2 O          24.2410   72.5244   -4.3260 O.co2   1  UNL1       -0.4371
      3 O          23.7252   70.9605   -2.2743 O.2     1  UNL1       -0.5170
      4 O          21.8761   71.6182   -4.0425 O.3     1  UNL1       -0.3112
      5 C          21.1227   70.4939   -3.6267 C.3     1  UNL1        0.1811
      6 O          19.1547   71.5704   -4.4904 O.3     1  UNL1       -0.3308
      7 O          17.6827   70.2946   -2.2107 O.3     1  UNL1       -0.3794
      8 O          17.0536   68.6710   -4.3094 O.3     1  UNL1       -0.3779
      9 C          18.7655   69.7817   -2.9872 C.3     1  UNL1        0.1713
     10 C          18.2779   69.3732   -4.3611 C.3     1  UNL1        0.1895
     11 C          19.7002   70.9388   -3.3119 C.3     1  UNL1        0.1764
     12 C          18.1534   70.7146   -5.0633 C.3     1  UNL1        0.2383
     13 H          17.0718   69.5733   -1.9910 H       1  UNL1        0.2105
     14 H          17.1855   67.8244   -3.8534 H       1  UNL1        0.2106
     15 O          16.1831   69.9616   -6.9414 O.2     1  UNL1       -0.2464
     16 O          19.1260   70.3681  -10.4653 O.2     1  UNL1       -0.2670
     17 N          18.3776   70.6155   -6.4778 N.ar    1  UNL1       -0.2551
     18 N          17.6509   70.1638   -8.6946 N.ar    1  UNL1       -0.2743
     19 C          17.3202   70.2284   -7.3346 C.ar    1  UNL1        0.3323
     20 C          19.6319   70.9016   -7.0030 C.ar    1  UNL1        0.0869
     21 C          19.9320   70.8358   -8.3016 C.ar    1  UNL1        0.0795
     22 C          18.8838   70.4382   -9.2642 C.ar    1  UNL1        0.2626
     23 H          16.9316   69.8945   -9.3105 H       1  UNL1        0.1734
     24 O          22.7582   73.3922   -2.4674 O.3     1  UNL1       -0.2703
     25 P          23.6439   74.5897   -1.8386 P.3     1  UNL1        0.2208
     26 O          22.5282   75.6249   -1.2875 O.co2   1  UNL1       -0.4371
     27 O          24.6296   75.1946   -2.7960 O.2     1  UNL1       -0.5170
     28 O          24.3036   73.9565   -0.5096 O.3     1  UNL1       -0.2858
     29 O          22.6197   73.2263    0.9872 O.3     1  UNL1       -0.3226
     30 O          26.0523   72.5251    3.1766 O.3     1  UNL1       -0.3794
     31 O          25.7620   74.9831    1.6247 O.3     1  UNL1       -0.3775
     32 O          24.6382   70.3114    1.9312 O.3     1  UNL1       -0.3792
     33 C          25.2616   72.6379    1.9934 C.3     1  UNL1        0.1718
     34 C          24.7102   74.0593    1.8800 C.3     1  UNL1        0.1968
     35 C          24.1155   71.6287    2.0925 C.3     1  UNL1        0.1723
     36 C          23.6775   74.1575    0.7562 C.3     1  UNL1        0.2706
     37 C          23.0643   71.8718    1.0133 C.3     1  UNL1        0.1830
     38 H          26.7872   73.1573    3.1362 H       1  UNL1        0.2105
     39 H          26.4211   74.9259    2.3338 H       1  UNL1        0.2106
     40 H          25.3086   70.1440    2.6119 H       1  UNL1        0.2106
     41 O          20.9284   71.8936    1.9822 O.co2   1  UNL1       -0.5466
     42 O          21.6040   69.9512    0.9975 O.co2   1  UNL1       -0.5466
     43 C          21.8122   71.1134    1.3121 C.2     1  UNL1        0.0799
@<TRIPOS>UNITY_ATOM_ATTR
2 1
charge -1
26 1
charge -1
41 1
charge -1
@<TRIPOS>BOND
     1     1     4    1
     2     1    24    1
     3     1     2    1
     4     1     3    2
     5    25    28    1
     6    25    24    1
     7    25    26    1
     8    25    27    2
     9     6    11    1
    10     6    12    1
    11    29    36    1
    12    29    37    1
    13     7     9    1
    14     7    13    1
    15     8    10    1
    16     8    14    1
    17     4     5    1
    18    28    36    1
    19    30    33    1
    20    30    38    1
    21    31    34    1
    22    31    39    1
    23    32    35    1
    24    32    40    1
    25    41    43   ar
    26    15    19    2
    27    42    43   ar
    28    16    22    2
    29    17    12    1
    30    17    19   ar
    31    17    20   ar
    32    18    19   ar
    33    18    22   ar
    34    18    23    1
    35     9    10    1
    36     9    11    1
    37    10    12    1
    38    11     5    1
    39    33    34    1
    40    33    35    1
    41    34    36    1
    42    35    37    1
    43    37    43    1
    44    20    21   ar
    45    21    22   ar
@<TRIPOS>MOLECULE
*****
 43 45 0 0 0
SMALL
GASTEIGER

@<TRIPOS>ATOM
      1 P          20.9220   71.0374   -1.9941 P.3     1  UNL1        0.2189
      2 O          21.4836   69.9975   -3.0996 O.co2   1  UNL1       -0.4371
      3 O          21.1552   70.6332   -0.5679 O.2     1  UNL1       -0.5170
      4 O          19.3763   71.2581   -2.4181 O.3     1  UNL1       -0.3112
      5 C          19.0884   71.6366   -3.7517 C.3     1  UNL1        0.1811
      6 O          17.3056   71.9908   -5.3246 O.3     1  UNL1       -0.3308
      7 O          15.5449   70.5524   -3.3695 O.3     1  UNL1       -0.3794
      8 O          16.0705   68.6264   -5.2270 O.3     1  UNL1       -0.3779
      9 C          16.9147   70.3160   -3.6957 C.3     1  UNL1        0.1713
     10 C          17.0235   69.6541   -5.0530 C.3     1  UNL1        0.1895
     11 C          17.5776   71.6639   -3.9445 C.3     1  UNL1        0.1764
     12 C          16.7988   70.8253   -5.9940 C.3     1  UNL1        0.2383
     13 H          15.1003   69.7054   -3.2062 H       1  UNL1        0.2105
     14 H          16.2566   67.9043   -4.6058 H       1  UNL1        0.2106
     15 O          15.5352   70.7482   -8.5187 O.2     1  UNL1       -0.2464
     16 O          19.5512   70.2101  -10.7156 O.2     1  UNL1       -0.2670
     17 N          17.4902   70.6661   -7.2420 N.ar    1  UNL1       -0.2551
     18 N          17.5365   70.4792   -9.6104 N.ar    1  UNL1       -0.2743
     19 C          16.7612   70.6401   -8.4545 C.ar    1  UNL1        0.3323
     20 C          18.8739   70.5394   -7.2571 C.ar    1  UNL1        0.0869
     21 C          19.5991   70.3869   -8.3669 C.ar    1  UNL1        0.0795
     22 C          18.9143   70.3486   -9.6757 C.ar    1  UNL1        0.2626
     23 H          17.0510   70.4561  -10.4666 H       1  UNL1        0.1734
     24 O          21.6186   72.4322   -2.4211 O.3     1  UNL1       -0.2703
     25 P          23.1759   72.8565   -2.5128 P.3     1  UNL1        0.2208
     26 O          23.1139   74.3706   -3.0818 O.co2   1  UNL1       -0.4371
     27 O          24.0214   71.9230   -3.3300 O.2     1  UNL1       -0.5170
     28 O          23.6475   73.0171   -0.9785 O.3     1  UNL1       -0.2858
     29 O          22.3530   73.4082    0.9659 O.3     1  UNL1       -0.3226
     30 O          25.8853   75.3335    1.9062 O.3     1  UNL1       -0.3794
     31 O          24.7386   75.5670   -0.7705 O.3     1  UNL1       -0.3775
     32 O          25.2619   72.7601    3.1061 O.3     1  UNL1       -0.3792
     33 C          25.0677   74.3361    1.2941 C.3     1  UNL1        0.1718
     34 C          24.0670   75.0032    0.3501 C.3     1  UNL1        0.1968
     35 C          24.3315   73.5818    2.4035 C.3     1  UNL1        0.1723
     36 C          23.0284   73.9965   -0.1464 C.3     1  UNL1        0.2706
     37 C          23.2280   72.6937    1.8359 C.3     1  UNL1        0.1830
     38 H          26.3630   75.8260    1.2203 H       1  UNL1        0.2105
     39 H          25.3993   76.2066   -0.4628 H       1  UNL1        0.2106
     40 H          25.9696   73.3132    3.4723 H       1  UNL1        0.2106
     41 O          21.1146   71.8527    2.4082 O.co2   1  UNL1       -0.5466
     42 O          22.5995   72.1784    4.1076 O.co2   1  UNL1       -0.5466
     43 C          22.3136   72.2251    2.9206 C.2     1  UNL1        0.0799
@<TRIPOS>UNITY_ATOM_ATTR
2 1
charge -1
26 1
charge -1
41 1
charge -1
@<TRIPOS>BOND
     1     1     4    1
     2     1    24    1
     3     1     2    1
     4     1     3    2
     5    25    28    1
     6    25    24    1
     7    25    26    1
     8    25    27    2
     9     6    11    1
    10     6    12    1
    11    29    36    1
    12    29    37    1
    13     7     9    1
    14     7    13    1
    15     8    10    1
    16     8    14    1
    17     4     5    1
    18    28    36    1
    19    30    33    1
    20    30    38    1
    21    31    34    1
    22    31    39    1
    23    32    35    1
    24    32    40    1
    25    41    43   ar
    26    15    19    2
    27    42    43   ar
    28    16    22    2
    29    17    12    1
    30    17    19   ar
    31    17    20   ar
    32    18    19   ar
    33    18    22   ar
    34    18    23    1
    35     9    10    1
    36     9    11    1
    37    10    12    1
    38    11     5    1
    39    33    34    1
    40    33    35    1
    41    34    36    1
    42    35    37    1
    43    37    43    1
    44    20    21   ar
    45    21    22   ar
@<TRIPOS>MOLECULE
*****
 43 45 0 0 0
SMALL
GASTEIGER

@<TRIPOS>ATOM
      1 P          22.9953   73.7709   -4.2003 P.3     1  UNL1        0.2189
      2 O          24.2469   72.7525   -4.3232 O.co2   1  UNL1       -0.4371
      3 O          23.2852   75.1840   -4.6138 O.2     1  UNL1       -0.5170
      4 O          22.4832   73.5752   -2.6780 O.3     1  UNL1       -0.3112
      5 C          21.9640   74.6983   -1.9897 C.3     1  UNL1        0.1811
      6 O          21.1018   72.9680   -0.5613 O.3     1  UNL1       -0.3308
      7 O          19.1448   75.0148    0.4248 O.3     1  UNL1       -0.3794
      8 O          21.0127   74.9709    2.4111 O.3     1  UNL1       -0.3779
      9 C          20.5100   75.1810    0.0414 C.3     1  UNL1        0.1713
     10 C          21.4261   74.6184    1.1075 C.3     1  UNL1        0.1895
     11 C          20.7837   74.2543   -1.1353 C.3     1  UNL1        0.1764
     12 C          21.3318   73.1245    0.8480 C.3     1  UNL1        0.2383
     13 H          18.9462   75.5970    1.1753 H       1  UNL1        0.2105
     14 H          21.0915   75.9313    2.5266 H       1  UNL1        0.2106
     15 O          21.5405   70.3186    1.0926 O.2     1  UNL1       -0.2464
     16 O          26.0023   70.5659    2.2217 O.2     1  UNL1       -0.2670
     17 N          22.5360   72.4293    1.2046 N.ar    1  UNL1       -0.2551
     18 N          23.7623   70.4445    1.6557 N.ar    1  UNL1       -0.2743
     19 C          22.5341   71.0175    1.3004 C.ar    1  UNL1        0.3323
     20 C          23.7016   73.1437    1.4534 C.ar    1  UNL1        0.0869
     21 C          24.8648   72.5835    1.7910 C.ar    1  UNL1        0.0795
     22 C          24.9480   71.1133    1.9135 C.ar    1  UNL1        0.2626
     23 H          23.7851   69.4631    1.7306 H       1  UNL1        0.1734
     24 O          21.8448   73.0382   -5.0677 O.3     1  UNL1       -0.2703
     25 P          20.2657   72.8396   -4.7835 P.3     1  UNL1        0.2208
     26 O          19.7131   74.3581   -4.6886 O.co2   1  UNL1       -0.4371
     27 O          19.9579   71.9933   -3.5823 O.2     1  UNL1       -0.5170
     28 O          19.6679   72.2748   -6.1714 O.3     1  UNL1       -0.2858
     29 O          18.8892   70.1245   -5.5558 O.3     1  UNL1       -0.3226
     30 O          17.4172   70.4832   -9.3993 O.3     1  UNL1       -0.3794
     31 O          20.1261   71.3722   -8.7620 O.3     1  UNL1       -0.3775
     32 O          15.6376   70.7878   -7.1209 O.3     1  UNL1       -0.3792
     33 C          17.8277   70.9457   -8.1126 C.3     1  UNL1        0.1718
     34 C          19.3017   70.6046   -7.8925 C.3     1  UNL1        0.1968
     35 C          16.9583   70.2523   -7.0613 C.3     1  UNL1        0.1723
     36 C          19.7159   70.8757   -6.4455 C.3     1  UNL1        0.2706
     37 C          17.5084   70.4664   -5.6542 C.3     1  UNL1        0.1830
     38 H          17.9561   70.9104  -10.0837 H       1  UNL1        0.2105
     39 H          19.8686   71.2053   -9.6819 H       1  UNL1        0.2106
     40 H          15.2760   70.6581   -8.0115 H       1  UNL1        0.2106
     41 O          15.9513   70.1883   -3.9223 O.co2   1  UNL1       -0.5466
     42 O          17.1106   68.3402   -4.5853 O.co2   1  UNL1       -0.5466
     43 C          16.8615   69.5324   -4.6839 C.2     1  UNL1        0.0799
@<TRIPOS>UNITY_ATOM_ATTR
2 1
charge -1
26 1
charge -1
41 1
charge -1
@<TRIPOS>BOND
     1     1     4    1
     2     1    24    1
     3     1     2    1
     4     1     3    2
     5    25    28    1
     6    25    24    1
     7    25    26    1
     8    25    27    2
     9     6    11    1
    10     6    12    1
    11    29    36    1
    12    29    37    1
    13     7     9    1
    14     7    13    1
    15     8    10    1
    16     8    14    1
    17     4     5    1
    18    28    36    1
    19    30    33    1
    20    30    38    1
    21    31    34    1
    22    31    39    1
    23    32    35    1
    24    32    40    1
    25    41    43   ar
    26    15    19    2
    27    42    43   ar
    28    16    22    2
    29    17    12    1
    30    17    19   ar
    31    17    20   ar
    32    18    19   ar
    33    18    22   ar
    34    18    23    1
    35     9    10    1
    36     9    11    1
    37    10    12    1
    38    11     5    1
    39    33    34    1
    40    33    35    1
    41    34    36    1
    42    35    37    1
    43    37    43    1
    44    20    21   ar
    45    21    22   ar
@<TRIPOS>MOLECULE
*****
 43 45 0 0 0
SMALL
GASTEIGER

@<TRIPOS>ATOM
      1 P          22.1779   72.7490   -6.7147 P.3     1  UNL1        0.2189
      2 O          21.5357   71.5881   -7.6414 O.co2   1  UNL1       -0.4371
      3 O          22.9604   72.2560   -5.5330 O.2     1  UNL1       -0.5170
      4 O          20.9236   73.7127   -6.3742 O.3     1  UNL1       -0.3112
      5 C          19.6143   73.1907   -6.5073 C.3     1  UNL1        0.1811
      6 O          19.2658   71.0030   -5.5744 O.3     1  UNL1       -0.3308
      7 O          19.3054   69.9960   -8.3985 O.3     1  UNL1       -0.3794
      8 O          16.6397   70.0680   -7.8290 O.3     1  UNL1       -0.3779
      9 C          18.7805   71.2195   -7.8827 C.3     1  UNL1        0.1713
     10 C          17.4871   70.9626   -7.1389 C.3     1  UNL1        0.1895
     11 C          19.7016   71.6921   -6.7662 C.3     1  UNL1        0.1764
     12 C          17.9880   70.3953   -5.8217 C.3     1  UNL1        0.2383
     13 H          18.7335   69.6744   -9.1135 H       1  UNL1        0.2105
     14 H          16.3475   70.4753   -8.6600 H       1  UNL1        0.2106
     15 O          16.1979   68.5438   -4.6624 O.2     1  UNL1       -0.2464
     16 O          14.6632   71.6521   -1.6249 O.2     1  UNL1       -0.2670
     17 N          17.1091   70.6942   -4.7267 N.ar    1  UNL1       -0.2551
     18 N          15.4345   70.0940   -3.1513 N.ar    1  UNL1       -0.2743
     19 C          16.2487   69.6924   -4.2185 C.ar    1  UNL1        0.3323
     20 C          17.1061   71.9660   -4.1670 C.ar    1  UNL1        0.0869
     21 C          16.3244   72.3339   -3.1499 C.ar    1  UNL1        0.0795
     22 C          15.3954   71.3469   -2.5613 C.ar    1  UNL1        0.2626
     23 H          14.8255   69.4143   -2.7820 H       1  UNL1        0.1734
     24 O          23.0329   73.6248   -7.7706 O.3     1  UNL1       -0.2703
     25 P          23.2028   75.2245   -7.9310 P.3     1  UNL1        0.2208
     26 O          24.1985   75.6144   -6.7158 O.co2   1  UNL1       -0.4371
     27 O          21.9077   75.9838   -7.9372 O.2     1  UNL1       -0.5170
     28 O          24.0939   75.4098   -9.2629 O.3     1  UNL1       -0.2858
     29 O          24.6946   73.7131  -10.8022 O.3     1  UNL1       -0.3226
     30 O          27.7968   76.4024  -11.2627 O.3     1  UNL1       -0.3794
     31 O          26.7723   75.7648   -8.6022 O.3     1  UNL1       -0.3775
     32 O          25.7051   76.2292  -13.2740 O.3     1  UNL1       -0.3792
     33 C          26.4551   75.9937  -10.9966 C.3     1  UNL1        0.1718
     34 C          26.4357   75.0560   -9.7892 C.3     1  UNL1        0.1968
     35 C          25.9250   75.2735  -12.2384 C.3     1  UNL1        0.1723
     36 C          25.0569   74.4179   -9.6141 C.3     1  UNL1        0.2706
     37 C          24.6091   74.5575  -11.9479 C.3     1  UNL1        0.1830
     38 H          28.1547   76.8625  -10.4871 H       1  UNL1        0.2105
     39 H          27.6459   76.1726   -8.7063 H       1  UNL1        0.2106
     40 H          26.5350   76.6921  -13.4684 H       1  UNL1        0.2106
     41 O          24.2962   72.3236  -12.5908 O.co2   1  UNL1       -0.5466
     42 O          24.0077   73.9178  -14.1953 O.co2   1  UNL1       -0.5466
     43 C          24.2722   73.6010  -13.0452 C.2     1  UNL1        0.0799
@<TRIPOS>UNITY_ATOM_ATTR
2 1
charge -1
26 1
charge -1
41 1
charge -1
@<TRIPOS>BOND
     1     1     4    1
     2     1    24    1
     3     1     2    1
     4     1     3    2
     5    25    28    1
     6    25    24    1
     7    25    26    1
     8    25    27    2
     9     6    11    1
    10     6    12    1
    11    29    36    1
    12    29    37    1
    13     7     9    1
    14     7    13    1
    15     8    10    1
    16     8    14    1
    17     4     5    1
    18    28    36    1
    19    30    33    1
    20    30    38    1
    21    31    34    1
    22    31    39    1
    23    32    35    1
    24    32    40    1
    25    41    43   ar
    26    15    19    2
    27    42    43   ar
    28    16    22    2
    29    17    12    1
    30    17    19   ar
    31    17    20   ar
    32    18    19   ar
    33    18    22   ar
    34    18    23    1
    35     9    10    1
    36     9    11    1
    37    10    12    1
    38    11     5    1
    39    33    34    1
    40    33    35    1
    41    34    36    1
    42    35    37    1
    43    37    43    1
    44    20    21   ar
    45    21    22   ar
@<TRIPOS>MOLECULE
*****
 43 45 0 0 0
SMALL
GASTEIGER

@<TRIPOS>ATOM
      1 P          20.0315   72.1745   -1.6267 P.3     1  UNL1        0.2189
      2 O          20.3226   70.7913   -0.8388 O.co2   1  UNL1       -0.4371
      3 O          18.8880   72.9825   -1.0869 O.2     1  UNL1       -0.5170
      4 O          19.9021   71.7203   -3.1743 O.3     1  UNL1       -0.3112
      5 C          19.2340   70.5074   -3.4693 C.3     1  UNL1        0.1811
      6 O          17.5158   71.4141   -4.8847 O.3     1  UNL1       -0.3308
      7 O          15.5730   69.8738   -3.1982 O.3     1  UNL1       -0.3794
      8 O          15.8127   68.3041   -5.4151 O.3     1  UNL1       -0.3779
      9 C          16.8940   69.5187   -3.6074 C.3     1  UNL1        0.1713
     10 C          16.9033   69.1330   -5.0715 C.3     1  UNL1        0.1895
     11 C          17.7422   70.7831   -3.6057 C.3     1  UNL1        0.1764
     12 C          16.8457   70.4885   -5.7551 C.3     1  UNL1        0.2383
     13 H          15.0123   69.0818   -3.1916 H       1  UNL1        0.2105
     14 H          15.8955   67.4536   -4.9550 H       1  UNL1        0.2106
     15 O          15.5073   70.5908   -8.2400 O.2     1  UNL1       -0.2464
     16 O          19.4725   70.4779  -10.5870 O.2     1  UNL1       -0.2670
     17 N          17.5038   70.4871   -7.0309 N.ar    1  UNL1       -0.2551
     18 N          17.4834   70.5334   -9.4066 N.ar    1  UNL1       -0.2743
     19 C          16.7386   70.5409   -8.2199 C.ar    1  UNL1        0.3323
     20 C          18.8909   70.4348   -7.0958 C.ar    1  UNL1        0.0869
     21 C          19.5868   70.4285   -8.2345 C.ar    1  UNL1        0.0795
     22 C          18.8631   70.4816   -9.5217 C.ar    1  UNL1        0.2626
     23 H          16.9725   70.5682  -10.2474 H       1  UNL1        0.1734
     24 O          21.4634   72.9234   -1.5864 O.3     1  UNL1       -0.2703
     25 P          22.8976   72.4415   -1.0168 P.3     1  UNL1        0.2208
     26 O          23.8454   73.7304   -1.2633 O.co2   1  UNL1       -0.4371
     27 O          23.4091   71.1711   -1.6319 O.2     1  UNL1       -0.5170
     28 O          22.7027   72.3795    0.5834 O.3     1  UNL1       -0.2858
     29 O          22.3073   74.5593    1.4206 O.3     1  UNL1       -0.3226
     30 O          22.3623   72.3221    4.8933 O.3     1  UNL1       -0.3794
     31 O          24.3163   71.8236    2.7796 O.3     1  UNL1       -0.3775
     32 O          19.8367   73.2616    3.8027 O.3     1  UNL1       -0.3792
     33 C          22.1264   72.5720    3.5078 C.3     1  UNL1        0.1718
     34 C          23.4418   72.9452    2.8238 C.3     1  UNL1        0.1968
     35 C          21.1244   73.7235    3.3989 C.3     1  UNL1        0.1723
     36 C          23.1957   73.4414    1.3983 C.3     1  UNL1        0.2706
     37 C          21.0287   74.2454    1.9681 C.3     1  UNL1        0.1830
     38 H          22.9964   71.5938    4.9873 H       1  UNL1        0.2105
     39 H          24.4766   71.5035    3.6808 H       1  UNL1        0.2106
     40 H          19.8838   72.9266    4.7118 H       1  UNL1        0.2106
     41 O          20.3674   76.1672    3.1388 O.co2   1  UNL1       -0.5466
     42 O          19.7614   76.0255    0.9452 O.co2   1  UNL1       -0.5466
     43 C          20.3155   75.5576    1.9286 C.2     1  UNL1        0.0799
@<TRIPOS>UNITY_ATOM_ATTR
2 1
charge -1
26 1
charge -1
41 1
charge -1
@<TRIPOS>BOND
     1     1     4    1
     2     1    24    1
     3     1     2    1
     4     1     3    2
     5    25    28    1
     6    25    24    1
     7    25    26    1
     8    25    27    2
     9     6    11    1
    10     6    12    1
    11    29    36    1
    12    29    37    1
    13     7     9    1
    14     7    13    1
    15     8    10    1
    16     8    14    1
    17     4     5    1
    18    28    36    1
    19    30    33    1
    20    30    38    1
    21    31    34    1
    22    31    39    1
    23    32    35    1
    24    32    40    1
    25    41    43   ar
    26    15    19    2
    27    42    43   ar
    28    16    22    2
    29    17    12    1
    30    17    19   ar
    31    17    20   ar
    32    18    19   ar
    33    18    22   ar
    34    18    23    1
    35     9    10    1
    36     9    11    1
    37    10    12    1
    38    11     5    1
    39    33    34    1
    40    33    35    1
    41    34    36    1
    42    35    37    1
    43    37    43    1
    44    20    21   ar
    45    21    22   ar
@<TRIPOS>MOLECULE
*****
 43 45 0 0 0
SMALL
GASTEIGER

@<TRIPOS>ATOM
      1 P          23.6448   72.6838   -3.8596 P.3     1  UNL1        0.2189
      2 O          24.8248   73.7834   -3.7272 O.co2   1  UNL1       -0.4371
      3 O          23.9894   71.3190   -3.3397 O.2     1  UNL1       -0.5170
      4 O          23.2205   72.7551   -5.4193 O.3     1  UNL1       -0.3112
      5 C          22.0596   72.0605   -5.8366 C.3     1  UNL1        0.1811
      6 O          20.3676   72.0109   -7.5432 O.3     1  UNL1       -0.3308
      7 O          20.5465   75.0041   -7.5465 O.3     1  UNL1       -0.3794
      8 O          18.3008   74.5431   -6.0699 O.3     1  UNL1       -0.3779
      9 C          20.6595   74.0933   -6.4528 C.3     1  UNL1        0.1713
     10 C          19.2976   73.5427   -6.0864 C.3     1  UNL1        0.1895
     11 C          21.3828   72.8493   -6.9502 C.3     1  UNL1        0.1764
     12 C          19.0713   72.5097   -7.1771 C.3     1  UNL1        0.2383
     13 H          20.0875   75.8071   -7.2530 H       1  UNL1        0.2105
     14 H          18.4896   75.1758   -5.3586 H       1  UNL1        0.2106
     15 O          19.1818   71.3874   -4.5877 O.2     1  UNL1       -0.2464
     16 O          15.9022   68.3062   -5.5848 O.2     1  UNL1       -0.2670
     17 N          18.2574   71.4135   -6.7333 N.ar    1  UNL1       -0.2551
     18 N          17.5490   69.8532   -5.0871 N.ar    1  UNL1       -0.2743
     19 C          18.3912   70.9247   -5.4122 C.ar    1  UNL1        0.3323
     20 C          17.3388   70.8358   -7.6012 C.ar    1  UNL1        0.0869
     21 C          16.5427   69.8151   -7.2769 C.ar    1  UNL1        0.0795
     22 C          16.6203   69.2448   -5.9160 C.ar    1  UNL1        0.2626
     23 H          17.6254   69.4945   -4.1735 H       1  UNL1        0.1734
     24 O          22.4007   73.3949   -3.1117 O.3     1  UNL1       -0.2703
     25 P          21.3151   72.8092   -2.0666 P.3     1  UNL1        0.2208
     26 O          21.1405   71.2705   -2.5382 O.co2   1  UNL1       -0.4371
     27 O          20.0327   73.5878   -2.0096 O.2     1  UNL1       -0.5170
     28 O          22.1057   72.7178   -0.6634 O.3     1  UNL1       -0.2858
     29 O          22.9817   70.8989    0.5749 O.3     1  UNL1       -0.3226
     30 O          21.6210   73.3848    3.5810 O.3     1  UNL1       -0.3794
     31 O          20.0276   72.9696    1.1680 O.3     1  UNL1       -0.3775
     32 O          24.4669   73.1988    3.0176 O.3     1  UNL1       -0.3792
     33 C          22.1700   73.0657    2.3024 C.3     1  UNL1        0.1718
     34 C          21.1767   72.2073    1.5188 C.3     1  UNL1        0.1968
     35 C          23.4753   72.2990    2.5262 C.3     1  UNL1        0.1723
     36 C          21.8168   71.6558    0.2441 C.3     1  UNL1        0.2706
     37 C          23.9833   71.6737    1.2302 C.3     1  UNL1        0.1830
     38 H          20.7905   73.8725    3.4640 H       1  UNL1        0.2105
     39 H          19.6165   73.3228    1.9721 H       1  UNL1        0.2106
     40 H          24.1559   73.6038    3.8423 H       1  UNL1        0.2106
     41 O          24.9389   70.1854    2.7707 O.co2   1  UNL1       -0.5466
     42 O          25.9177   70.3264    0.7162 O.co2   1  UNL1       -0.5466
     43 C          25.0545   70.6703    1.5096 C.2     1  UNL1        0.0799
@<TRIPOS>UNITY_ATOM_ATTR
2 1
charge -1
26 1
charge -1
41 1
charge -1
@<TRIPOS>BOND
     1     1     4    1
     2     1    24    1
     3     1     2    1
     4     1     3    2
     5    25    28    1
     6    25    24    1
     7    25    26    1
     8    25    27    2
     9     6    11    1
    10     6    12    1
    11    29    36    1
    12    29    37    1
    13     7     9    1
    14     7    13    1
    15     8    10    1
    16     8    14    1
    17     4     5    1
    18    28    36    1
    19    30    33    1
    20    30    38    1
    21    31    34    1
    22    31    39    1
    23    32    35    1
    24    32    40    1
    25    41    43   ar
    26    15    19    2
    27    42    43   ar
    28    16    22    2
    29    17    12    1
    30    17    19   ar
    31    17    20   ar
    32    18    19   ar
    33    18    22   ar
    34    18    23    1
    35     9    10    1
    36     9    11    1
    37    10    12    1
    38    11     5    1
    39    33    34    1
    40    33    35    1
    41    34    36    1
    42    35    37    1
    43    37    43    1
    44    20    21   ar
    45    21    22   ar
@<TRIPOS>MOLECULE
*****
 43 45 0 0 0
SMALL
GASTEIGER

@<TRIPOS>ATOM
      1 P          15.2998   71.5474   -1.9911 P.3     1  UNL1        0.2189
      2 O          15.8570   72.7452   -1.0565 O.co2   1  UNL1       -0.4371
      3 O          14.0466   71.8680   -2.7518 O.2     1  UNL1       -0.5170
      4 O          15.2080   70.2818   -0.9872 O.3     1  UNL1       -0.3112
      5 C          14.0552   69.4614   -1.0372 C.3     1  UNL1        0.1811
      6 O          11.6818   69.8312   -1.1257 O.3     1  UNL1       -0.3308
      7 O          11.9405   70.9492    1.6447 O.3     1  UNL1       -0.3794
      8 O          10.9831   68.4373    2.1028 O.3     1  UNL1       -0.3779
      9 C          12.6416   69.8625    1.0396 C.3     1  UNL1        0.1713
     10 C          11.7382   68.6526    0.9289 C.3     1  UNL1        0.1895
     11 C          12.8830   70.2147   -0.4219 C.3     1  UNL1        0.1764
     12 C          10.8719   69.0141   -0.2656 C.3     1  UNL1        0.2383
     13 H          11.7748   70.7472    2.5792 H       1  UNL1        0.2105
     14 H          11.5797   68.2100    2.8338 H       1  UNL1        0.2106
     15 O           8.9231   69.0609   -2.3092 O.2     1  UNL1       -0.2464
     16 O           9.2734   64.5171   -2.9985 O.2     1  UNL1       -0.2670
     17 N          10.4350   67.8579   -0.9956 N.ar    1  UNL1       -0.2551
     18 N           9.0987   66.7976   -2.6499 N.ar    1  UNL1       -0.2743
     19 C           9.4501   67.9897   -2.0030 C.ar    1  UNL1        0.3323
     20 C          10.9812   66.6118   -0.7129 C.ar    1  UNL1        0.0869
     21 C          10.6363   65.4845   -1.3381 C.ar    1  UNL1        0.0795
     22 C           9.6133   65.5351   -2.4032 C.ar    1  UNL1        0.2626
     23 H           8.4134   66.8639   -3.3537 H       1  UNL1        0.1734
     24 O          16.5751   71.1857   -2.9161 O.3     1  UNL1       -0.2703
     25 P          17.2180   69.7604   -3.3271 P.3     1  UNL1        0.2208
     26 O          15.9423   68.9195   -3.8617 O.co2   1  UNL1       -0.4371
     27 O          17.9831   69.0888   -2.2237 O.2     1  UNL1       -0.5170
     28 O          18.0858   70.0695   -4.6515 O.3     1  UNL1       -0.2858
     29 O          19.2494   71.8374   -5.7145 O.3     1  UNL1       -0.3226
     30 O          16.7970   70.4961   -8.7566 O.3     1  UNL1       -0.3794
     31 O          15.7716   70.7558   -6.0335 O.3     1  UNL1       -0.3775
     32 O          19.6277   69.8344   -8.7653 O.3     1  UNL1       -0.3792
     33 C          17.6003   70.3780   -7.5824 C.3     1  UNL1        0.1718
     34 C          17.0245   71.2637   -6.4773 C.3     1  UNL1        0.1968
     35 C          19.0214   70.8231   -7.9350 C.3     1  UNL1        0.1723
     36 C          17.9801   71.3428   -5.2859 C.3     1  UNL1        0.2706
     37 C          19.8764   71.0001   -6.6835 C.3     1  UNL1        0.1830
     38 H          15.8891   70.2186   -8.5567 H       1  UNL1        0.2105
     39 H          15.1604   70.7027   -6.7844 H       1  UNL1        0.2106
     40 H          19.0932   69.7120   -9.5654 H       1  UNL1        0.2106
     41 O          21.8714   71.9354   -5.8793 O.co2   1  UNL1       -0.5466
     42 O          21.4651   72.1163   -8.1157 O.co2   1  UNL1       -0.5466
     43 C          21.1353   71.7392   -7.0013 C.2     1  UNL1        0.0799
@<TRIPOS>UNITY_ATOM_ATTR
2 1
charge -1
26 1
charge -1
41 1
charge -1
@<TRIPOS>BOND
     1     1     4    1
     2     1    24    1
     3     1     2    1
     4     1     3    2
     5    25    28    1
     6    25    24    1
     7    25    26    1
     8    25    27    2
     9     6    11    1
    10     6    12    1
    11    29    36    1
    12    29    37    1
    13     7     9    1
    14     7    13    1
    15     8    10    1
    16     8    14    1
    17     4     5    1
    18    28    36    1
    19    30    33    1
    20    30    38    1
    21    31    34    1
    22    31    39    1
    23    32    35    1
    24    32    40    1
    25    41    43   ar
    26    15    19    2
    27    42    43   ar
    28    16    22    2
    29    17    12    1
    30    17    19   ar
    31    17    20   ar
    32    18    19   ar
    33    18    22   ar
    34    18    23    1
    35     9    10    1
    36     9    11    1
    37    10    12    1
    38    11     5    1
    39    33    34    1
    40    33    35    1
    41    34    36    1
    42    35    37    1
    43    37    43    1
    44    20    21   ar
    45    21    22   ar
@<TRIPOS>MOLECULE
*****
 43 45 0 0 0
SMALL
GASTEIGER

@<TRIPOS>ATOM
      1 P          14.9198   71.7285   -1.2597 P.3     1  UNL1        0.2189
      2 O          15.0874   73.0379   -0.3236 O.co2   1  UNL1       -0.4371
      3 O          13.9469   71.8796   -2.3922 O.2     1  UNL1       -0.5170
      4 O          14.5977   70.5396   -0.2107 O.3     1  UNL1       -0.3112
      5 C          13.2460   70.2754    0.1177 C.3     1  UNL1        0.1811
      6 O          13.2436   67.8873    0.3914 O.3     1  UNL1       -0.3308
      7 O          11.0904   67.8370   -1.6949 O.3     1  UNL1       -0.3794
      8 O           9.6809   67.5586    0.6229 O.3     1  UNL1       -0.3779
      9 C          11.3292   68.7974   -0.6658 C.3     1  UNL1        0.1713
     10 C          10.9181   68.2374    0.6794 C.3     1  UNL1        0.1895
     11 C          12.8357   68.9458   -0.5022 C.3     1  UNL1        0.1764
     12 C          12.0785   67.3122    1.0039 C.3     1  UNL1        0.2383
     13 H          10.1343   67.7251   -1.8176 H       1  UNL1        0.2105
     14 H           8.9747   68.1905    0.4137 H       1  UNL1        0.2106
     15 O          10.2821   66.0901    2.8083 O.2     1  UNL1       -0.2464
     16 O          13.0506   66.9064    6.4018 O.2     1  UNL1       -0.2670
     17 N          12.3049   67.1917    2.4164 N.ar    1  UNL1       -0.2551
     18 N          11.6622   66.4988    4.5965 N.ar    1  UNL1       -0.2743
     19 C          11.3387   66.5601    3.2347 C.ar    1  UNL1        0.3323
     20 C          13.4730   67.6939    2.9769 C.ar    1  UNL1        0.0869
     21 C          13.7674   67.6279    4.2768 C.ar    1  UNL1        0.0795
     22 C          12.8106   66.9844    5.2008 C.ar    1  UNL1        0.2626
     23 H          11.0039   66.0654    5.1865 H       1  UNL1        0.1734
     24 O          16.4381   71.4106   -1.7143 O.3     1  UNL1       -0.2703
     25 P          17.0558   70.1845   -2.5679 P.3     1  UNL1        0.2208
     26 O          15.7717   69.2358   -2.8351 O.co2   1  UNL1       -0.4371
     27 O          18.2094   69.4909   -1.9031 O.2     1  UNL1       -0.5170
     28 O          17.3985   70.8215   -4.0099 O.3     1  UNL1       -0.2858
     29 O          17.6767   69.9082   -6.1773 O.3     1  UNL1       -0.3226
     30 O          20.5970   72.8298   -6.1149 O.3     1  UNL1       -0.3794
     31 O          20.1533   71.1295   -3.7811 O.3     1  UNL1       -0.3775
     32 O          18.1335   73.2605   -7.5969 O.3     1  UNL1       -0.3792
     33 C          19.3429   72.2336   -5.7838 C.3     1  UNL1        0.1718
     34 C          19.5816   70.9055   -5.0648 C.3     1  UNL1        0.1968
     35 C          18.5707   72.0032   -7.0847 C.3     1  UNL1        0.1723
     36 C          18.2738   70.1303   -4.8992 C.3     1  UNL1        0.2706
     37 C          17.3489   71.1175   -6.8579 C.3     1  UNL1        0.1830
     38 H          21.1055   72.9855   -5.3034 H       1  UNL1        0.2105
     39 H          20.9834   71.6213   -3.8787 H       1  UNL1        0.2106
     40 H          18.9017   73.8339   -7.7456 H       1  UNL1        0.2106
     41 O          17.7464   69.9661   -8.8623 O.co2   1  UNL1       -0.5466
     42 O          15.6498   70.8034   -8.5419 O.co2   1  UNL1       -0.5466
     43 C          16.7972   70.6315   -8.1586 C.2     1  UNL1        0.0799
@<TRIPOS>UNITY_ATOM_ATTR
2 1
charge -1
26 1
charge -1
41 1
charge -1
@<TRIPOS>BOND
     1     1     4    1
     2     1    24    1
     3     1     2    1
     4     1     3    2
     5    25    28    1
     6    25    24    1
     7    25    26    1
     8    25    27    2
     9     6    11    1
    10     6    12    1
    11    29    36    1
    12    29    37    1
    13     7     9    1
    14     7    13    1
    15     8    10    1
    16     8    14    1
    17     4     5    1
    18    28    36    1
    19    30    33    1
    20    30    38    1
    21    31    34    1
    22    31    39    1
    23    32    35    1
    24    32    40    1
    25    41    43   ar
    26    15    19    2
    27    42    43   ar
    28    16    22    2
    29    17    12    1
    30    17    19   ar
    31    17    20   ar
    32    18    19   ar
    33    18    22   ar
    34    18    23    1
    35     9    10    1
    36     9    11    1
    37    10    12    1
    38    11     5    1
    39    33    34    1
    40    33    35    1
    41    34    36    1
    42    35    37    1
    43    37    43    1
    44    20    21   ar
    45    21    22   ar
@<TRIPOS>MOLECULE
*****
 43 45 0 0 0
SMALL
GASTEIGER

@<TRIPOS>ATOM
      1 P          20.8888   71.1273   -1.4907 P.3     1  UNL1        0.2189
      2 O          22.0040   70.6505   -2.5620 O.co2   1  UNL1       -0.4371
      3 O          21.1078   70.6395   -0.0886 O.2     1  UNL1       -0.5170
      4 O          19.4860   70.6977   -2.1729 O.3     1  UNL1       -0.3112
      5 C          19.1916   71.1763   -3.4725 C.3     1  UNL1        0.1811
      6 O          17.4008   71.7763   -4.9593 O.3     1  UNL1       -0.3308
      7 O          15.6032   70.2419   -3.1138 O.3     1  UNL1       -0.3794
      8 O          15.9902   68.4865   -5.1644 O.3     1  UNL1       -0.3779
      9 C          16.9520   69.9696   -3.4947 C.3     1  UNL1        0.1713
     10 C          16.9997   69.4417   -4.9129 C.3     1  UNL1        0.1895
     11 C          17.6810   71.2999   -3.6252 C.3     1  UNL1        0.1764
     12 C          16.8200   70.7109   -5.7281 C.3     1  UNL1        0.2383
     13 H          15.1172   69.4068   -3.0242 H       1  UNL1        0.2105
     14 H          16.1494   67.6975   -4.6221 H       1  UNL1        0.2106
     15 O          15.4874   70.7764   -8.2174 O.2     1  UNL1       -0.2464
     16 O          19.4470   70.4388  -10.5523 O.2     1  UNL1       -0.2670
     17 N          17.4782   70.6418   -7.0020 N.ar    1  UNL1       -0.2551
     18 N          17.4607   70.6072   -9.3779 N.ar    1  UNL1       -0.2743
     19 C          16.7161   70.6825   -8.1935 C.ar    1  UNL1        0.3323
     20 C          18.8625   70.5368   -7.0627 C.ar    1  UNL1        0.0869
     21 C          19.5583   70.4661   -8.1992 C.ar    1  UNL1        0.0795
     22 C          18.8377   70.5013   -9.4887 C.ar    1  UNL1        0.2626
     23 H          16.9518   70.6316  -10.2204 H       1  UNL1        0.1734
     24 O          20.8942   72.7356   -1.6527 O.3     1  UNL1       -0.2703
     25 P          22.0026   73.8397   -1.2454 P.3     1  UNL1        0.2208
     26 O          21.1929   75.2366   -1.3606 O.co2   1  UNL1       -0.4371
     27 O          23.2584   73.7834   -2.0661 O.2     1  UNL1       -0.5170
     28 O          22.2277   73.6289    0.3381 O.3     1  UNL1       -0.2858
     29 O          23.5092   74.6675    2.0375 O.3     1  UNL1       -0.3226
     30 O          24.0547   70.6644    2.9010 O.3     1  UNL1       -0.3794
     31 O          24.1260   71.6061    0.1365 O.3     1  UNL1       -0.3775
     32 O          22.2607   72.2759    4.5243 O.3     1  UNL1       -0.3792
     33 C          23.3488   71.8105    2.4256 C.3     1  UNL1        0.1718
     34 C          24.1299   72.4536    1.2794 C.3     1  UNL1        0.1968
     35 C          23.2053   72.7938    3.5895 C.3     1  UNL1        0.1723
     36 C          23.5274   73.8066    0.8982 C.3     1  UNL1        0.2706
     37 C          22.7187   74.1581    3.1093 C.3     1  UNL1        0.1830
     38 H          24.1580   70.0253    2.1783 H       1  UNL1        0.2105
     39 H          24.5067   70.7457    0.3712 H       1  UNL1        0.2106
     40 H          22.5585   71.4076    4.8376 H       1  UNL1        0.2106
     41 O          24.0716   75.8449    4.0182 O.co2   1  UNL1       -0.5466
     42 O          22.0933   75.4192    5.0689 O.co2   1  UNL1       -0.5466
     43 C          22.8949   75.1896    4.1758 C.2     1  UNL1        0.0799
@<TRIPOS>UNITY_ATOM_ATTR
2 1
charge -1
26 1
charge -1
41 1
charge -1
@<TRIPOS>BOND
     1     1     4    1
     2     1    24    1
     3     1     2    1
     4     1     3    2
     5    25    28    1
     6    25    24    1
     7    25    26    1
     8    25    27    2
     9     6    11    1
    10     6    12    1
    11    29    36    1
    12    29    37    1
    13     7     9    1
    14     7    13    1
    15     8    10    1
    16     8    14    1
    17     4     5    1
    18    28    36    1
    19    30    33    1
    20    30    38    1
    21    31    34    1
    22    31    39    1
    23    32    35    1
    24    32    40    1
    25    41    43   ar
    26    15    19    2
    27    42    43   ar
    28    16    22    2
    29    17    12    1
    30    17    19   ar
    31    17    20   ar
    32    18    19   ar
    33    18    22   ar
    34    18    23    1
    35     9    10    1
    36     9    11    1
    37    10    12    1
    38    11     5    1
    39    33    34    1
    40    33    35    1
    41    34    36    1
    42    35    37    1
    43    37    43    1
    44    20    21   ar
    45    21    22   ar
@<TRIPOS>MOLECULE
*****
 43 45 0 0 0
SMALL
GASTEIGER

@<TRIPOS>ATOM
      1 P          23.4623   72.3541   -3.6226 P.3     1  UNL1        0.2189
      2 O          24.0582   70.8876   -3.2863 O.co2   1  UNL1       -0.4371
      3 O          24.4880   73.3850   -3.9930 O.2     1  UNL1       -0.5170
      4 O          22.5457   72.7055   -2.3365 O.3     1  UNL1       -0.3112
      5 C          23.1725   72.8292   -1.0730 C.3     1  UNL1        0.1811
      6 O          24.2284   71.3140    0.4655 O.3     1  UNL1       -0.3308
      7 O          21.4997   70.1501    0.9024 O.3     1  UNL1       -0.3794
      8 O          21.8263   71.7417    3.0925 O.3     1  UNL1       -0.3779
      9 C          21.8768   71.5079    0.6728 C.3     1  UNL1        0.1713
     10 C          22.5208   72.0900    1.9132 C.3     1  UNL1        0.1895
     11 C          23.0323   71.5132   -0.3187 C.3     1  UNL1        0.1764
     12 C          23.9149   71.4888    1.8564 C.3     1  UNL1        0.2383
     13 H          20.7627   70.1211    1.5330 H       1  UNL1        0.2105
     14 H          20.9452   72.1486    3.0809 H       1  UNL1        0.2106
     15 O          26.6039   70.7459    2.2963 O.2     1  UNL1       -0.2464
     16 O          27.6206   74.8375    4.1589 O.2     1  UNL1       -0.2670
     17 N          24.9037   72.3405    2.4545 N.ar    1  UNL1       -0.2551
     18 N          27.1075   72.7841    3.2245 N.ar    1  UNL1       -0.2743
     19 C          26.2267   71.8705    2.6306 C.ar    1  UNL1        0.3323
     20 C          24.5602   73.6251    2.8577 C.ar    1  UNL1        0.0869
     21 C          25.4109   74.4845    3.4223 C.ar    1  UNL1        0.0795
     22 C          26.8124   74.0715    3.6427 C.ar    1  UNL1        0.2626
     23 H          28.0337   72.4788    3.3593 H       1  UNL1        0.1734
     24 O          22.3703   72.0468   -4.7741 O.3     1  UNL1       -0.2703
     25 P          21.5961   73.0343   -5.7935 P.3     1  UNL1        0.2208
     26 O          22.4620   72.9125   -7.1557 O.co2   1  UNL1       -0.4371
     27 O          21.4343   74.4383   -5.2870 O.2     1  UNL1       -0.5170
     28 O          20.2101   72.2775   -6.1230 O.3     1  UNL1       -0.2858
     29 O          19.5364   70.0849   -5.5333 O.3     1  UNL1       -0.3226
     30 O          17.5342   70.6481   -9.1029 O.3     1  UNL1       -0.3794
     31 O          20.3017   71.5339   -8.8016 O.3     1  UNL1       -0.3775
     32 O          16.0931   70.7958   -6.5825 O.3     1  UNL1       -0.3792
     33 C          18.1202   71.0400   -7.8616 C.3     1  UNL1        0.1718
     34 C          19.6122   70.7061   -7.8720 C.3     1  UNL1        0.1968
     35 C          17.4114   70.2751   -6.7416 C.3     1  UNL1        0.1723
     36 C          20.2254   70.8976   -6.4842 C.3     1  UNL1        0.2706
     37 C          18.1540   70.4138   -5.4157 C.3     1  UNL1        0.1830
     38 H          17.9688   71.1216   -9.8297 H       1  UNL1        0.2105
     39 H          19.9175   71.4176   -9.6843 H       1  UNL1        0.2106
     40 H          15.6098   70.7136   -7.4195 H       1  UNL1        0.2106
     41 O          18.5314   69.2845   -3.3949 O.co2   1  UNL1       -0.5466
     42 O          16.6031   68.8017   -4.5119 O.co2   1  UNL1       -0.5466
     43 C          17.6552   69.4164   -4.4215 C.2     1  UNL1        0.0799
@<TRIPOS>UNITY_ATOM_ATTR
2 1
charge -1
26 1
charge -1
41 1
charge -1
@<TRIPOS>BOND
     1     1     4    1
     2     1    24    1
     3     1     2    1
     4     1     3    2
     5    25    28    1
     6    25    24    1
     7    25    26    1
     8    25    27    2
     9     6    11    1
    10     6    12    1
    11    29    36    1
    12    29    37    1
    13     7     9    1
    14     7    13    1
    15     8    10    1
    16     8    14    1
    17     4     5    1
    18    28    36    1
    19    30    33    1
    20    30    38    1
    21    31    34    1
    22    31    39    1
    23    32    35    1
    24    32    40    1
    25    41    43   ar
    26    15    19    2
    27    42    43   ar
    28    16    22    2
    29    17    12    1
    30    17    19   ar
    31    17    20   ar
    32    18    19   ar
    33    18    22   ar
    34    18    23    1
    35     9    10    1
    36     9    11    1
    37    10    12    1
    38    11     5    1
    39    33    34    1
    40    33    35    1
    41    34    36    1
    42    35    37    1
    43    37    43    1
    44    20    21   ar
    45    21    22   ar
@<TRIPOS>MOLECULE
*****
 43 45 0 0 0
SMALL
GASTEIGER

@<TRIPOS>ATOM
      1 P          21.8516   72.4406   -5.6688 P.3     1  UNL1        0.2189
      2 O          21.1618   73.8614   -5.3160 O.co2   1  UNL1       -0.4371
      3 O          23.0899   72.5294   -6.5116 O.2     1  UNL1       -0.5170
      4 O          20.6410   71.5644   -6.2889 O.3     1  UNL1       -0.3112
      5 C          20.1037   71.9452   -7.5422 C.3     1  UNL1        0.1811
      6 O          18.8589   69.9297   -7.1348 O.3     1  UNL1       -0.3308
      7 O          18.1043   70.0305  -10.0351 O.3     1  UNL1       -0.3794
      8 O          15.8758   71.0091   -8.8053 O.3     1  UNL1       -0.3779
      9 C          18.2862   71.1035   -9.1109 C.3     1  UNL1        0.1713
     10 C          17.1170   71.1729   -8.1516 C.3     1  UNL1        0.1895
     11 C          19.4371   70.7355   -8.1845 C.3     1  UNL1        0.1764
     12 C          17.4276   70.0359   -7.1931 C.3     1  UNL1        0.2383
     13 H          17.3739   70.2427  -10.6378 H       1  UNL1        0.2105
     14 H          15.7243   71.7581   -9.4037 H       1  UNL1        0.2106
     15 O          16.3279   68.0495   -5.5133 O.2     1  UNL1       -0.2464
     16 O          15.5236   71.0874   -2.1417 O.2     1  UNL1       -0.2670
     17 N          16.9233   70.2802   -5.8714 N.ar    1  UNL1       -0.2551
     18 N          15.9274   69.5647   -3.8361 N.ar    1  UNL1       -0.2743
     19 C          16.3913   69.2125   -5.1104 C.ar    1  UNL1        0.3323
     20 C          16.9600   71.5642   -5.3414 C.ar    1  UNL1        0.0869
     21 C          16.5141   71.8844   -4.1250 C.ar    1  UNL1        0.0795
     22 C          15.9422   70.8272   -3.2656 C.ar    1  UNL1        0.2626
     23 H          15.5507   68.8385   -3.2883 H       1  UNL1        0.1734
     24 O          22.0742   71.7739   -4.2132 O.3     1  UNL1       -0.2703
     25 P          23.2690   71.9469   -3.1380 P.3     1  UNL1        0.2208
     26 O          23.9405   73.3594   -3.5554 O.co2   1  UNL1       -0.4371
     27 O          24.2299   70.7943   -3.0944 O.2     1  UNL1       -0.5170
     28 O          22.5215   72.2487   -1.7405 O.3     1  UNL1       -0.2858
     29 O          23.1884   70.7602   -0.0234 O.3     1  UNL1       -0.3226
     30 O          20.1257   72.8404    1.8098 O.3     1  UNL1       -0.3794
     31 O          19.8662   71.9618   -0.9642 O.3     1  UNL1       -0.3775
     32 O          22.8930   73.4235    2.4829 O.3     1  UNL1       -0.3792
     33 C          21.2270   72.6579    0.9199 C.3     1  UNL1        0.1718
     34 C          20.8996   71.5471   -0.0783 C.3     1  UNL1        0.1968
     35 C          22.4521   72.2789    1.7550 C.3     1  UNL1        0.1723
     36 C          22.1339   71.1658   -0.8968 C.3     1  UNL1        0.2706
     37 C          23.5978   71.7904    0.8734 C.3     1  UNL1        0.1830
     38 H          19.3355   73.0818    1.3014 H       1  UNL1        0.2105
     39 H          19.0799   72.2055   -0.4516 H       1  UNL1        0.2106
     40 H          22.1729   73.7445    3.0480 H       1  UNL1        0.2106
     41 O          25.4522   72.0408    2.2876 O.co2   1  UNL1       -0.5466
     42 O          24.7786   69.9126    1.8226 O.co2   1  UNL1       -0.5466
     43 C          24.6511   71.1211    1.6949 C.2     1  UNL1        0.0799
@<TRIPOS>UNITY_ATOM_ATTR
2 1
charge -1
26 1
charge -1
41 1
charge -1
@<TRIPOS>BOND
     1     1     4    1
     2     1    24    1
     3     1     2    1
     4     1     3    2
     5    25    28    1
     6    25    24    1
     7    25    26    1
     8    25    27    2
     9     6    11    1
    10     6    12    1
    11    29    36    1
    12    29    37    1
    13     7     9    1
    14     7    13    1
    15     8    10    1
    16     8    14    1
    17     4     5    1
    18    28    36    1
    19    30    33    1
    20    30    38    1
    21    31    34    1
    22    31    39    1
    23    32    35    1
    24    32    40    1
    25    41    43   ar
    26    15    19    2
    27    42    43   ar
    28    16    22    2
    29    17    12    1
    30    17    19   ar
    31    17    20   ar
    32    18    19   ar
    33    18    22   ar
    34    18    23    1
    35     9    10    1
    36     9    11    1
    37    10    12    1
    38    11     5    1
    39    33    34    1
    40    33    35    1
    41    34    36    1
    42    35    37    1
    43    37    43    1
    44    20    21   ar
    45    21    22   ar
@<TRIPOS>MOLECULE
*****
 43 45 0 0 0
SMALL
GASTEIGER

@<TRIPOS>ATOM
      1 P          22.6886   72.5652   -4.1563 P.3     1  UNL1        0.2189
      2 O          24.2941   72.3620   -4.1422 O.co2   1  UNL1       -0.4371
      3 O          22.2105   73.8717   -3.5940 O.2     1  UNL1       -0.5170
      4 O          22.1225   71.2368   -3.4263 O.3     1  UNL1       -0.3112
      5 C          22.1484   71.1795   -2.0119 C.3     1  UNL1        0.1811
      6 O          20.7762   70.8873   -0.0602 O.3     1  UNL1       -0.3308
      7 O          18.5003   71.8833   -1.7395 O.3     1  UNL1       -0.3794
      8 O          19.1671   74.0841   -0.2738 O.3     1  UNL1       -0.3779
      9 C          19.8712   72.2824   -1.7471 C.3     1  UNL1        0.1713
     10 C          20.1768   73.1307   -0.5308 C.3     1  UNL1        0.1895
     11 C          20.7220   71.0452   -1.4946 C.3     1  UNL1        0.1764
     12 C          20.2851   72.0838    0.5647 C.3     1  UNL1        0.2383
     13 H          17.9371   72.6573   -1.8988 H       1  UNL1        0.2105
     14 H          19.1383   74.7281   -0.9993 H       1  UNL1        0.2106
     15 O          22.3168   70.4245    1.6113 O.2     1  UNL1       -0.2464
     16 O          23.7097   73.6808    4.5609 O.2     1  UNL1       -0.2670
     17 N          21.1929   72.4727    1.6066 N.ar    1  UNL1       -0.2551
     18 N          23.0079   72.0476    3.0801 N.ar    1  UNL1       -0.2743
     19 C          22.1775   71.5636    2.0607 C.ar    1  UNL1        0.3323
     20 C          21.1042   73.7417    2.1659 C.ar    1  UNL1        0.0869
     21 C          21.9029   74.1888    3.1369 C.ar    1  UNL1        0.0795
     22 C          22.9578   73.3009    3.6684 C.ar    1  UNL1        0.2626
     23 H          23.6998   71.4319    3.4140 H       1  UNL1        0.1734
     24 O          22.3052   72.3190   -5.7071 O.3     1  UNL1       -0.2703
     25 P          21.3598   73.1602   -6.7132 P.3     1  UNL1        0.2208
     26 O          22.0356   72.8991   -8.1608 O.co2   1  UNL1       -0.4371
     27 O          21.2124   74.6100   -6.3521 O.2     1  UNL1       -0.5170
     28 O          19.9733   72.3367   -6.7566 O.3     1  UNL1       -0.2858
     29 O          19.3898   70.1996   -5.9189 O.3     1  UNL1       -0.3226
     30 O          17.1302   70.3947   -9.3720 O.3     1  UNL1       -0.3794
     31 O          19.8924   71.3456   -9.3542 O.3     1  UNL1       -0.3775
     32 O          15.8669   70.7577   -6.7791 O.3     1  UNL1       -0.3792
     33 C          17.7935   70.9103   -8.2178 C.3     1  UNL1        0.1718
     34 C          19.2878   70.5989   -8.3046 C.3     1  UNL1        0.1968
     35 C          17.1817   70.2439   -6.9836 C.3     1  UNL1        0.1723
     36 C          19.9928   70.9293   -6.9883 C.3     1  UNL1        0.2706
     37 C          18.0124   70.5178   -5.7332 C.3     1  UNL1        0.1830
     38 H          17.5025   70.8040  -10.1690 H       1  UNL1        0.2105
     39 H          19.4498   71.1411  -10.1924 H       1  UNL1        0.2106
     40 H          15.3279   70.5900   -7.5678 H       1  UNL1        0.2106
     41 O          16.7503   68.6581   -5.0624 O.co2   1  UNL1       -0.5466
     42 O          17.9894   69.7065   -3.4610 O.co2   1  UNL1       -0.5466
     43 C          17.6062   69.6111   -4.6173 C.2     1  UNL1        0.0799
@<TRIPOS>UNITY_ATOM_ATTR
2 1
charge -1
26 1
charge -1
41 1
charge -1
@<TRIPOS>BOND
     1     1     4    1
     2     1    24    1
     3     1     2    1
     4     1     3    2
     5    25    28    1
     6    25    24    1
     7    25    26    1
     8    25    27    2
     9     6    11    1
    10     6    12    1
    11    29    36    1
    12    29    37    1
    13     7     9    1
    14     7    13    1
    15     8    10    1
    16     8    14    1
    17     4     5    1
    18    28    36    1
    19    30    33    1
    20    30    38    1
    21    31    34    1
    22    31    39    1
    23    32    35    1
    24    32    40    1
    25    41    43   ar
    26    15    19    2
    27    42    43   ar
    28    16    22    2
    29    17    12    1
    30    17    19   ar
    31    17    20   ar
    32    18    19   ar
    33    18    22   ar
    34    18    23    1
    35     9    10    1
    36     9    11    1
    37    10    12    1
    38    11     5    1
    39    33    34    1
    40    33    35    1
    41    34    36    1
    42    35    37    1
    43    37    43    1
    44    20    21   ar
    45    21    22   ar
@<TRIPOS>MOLECULE
*****
 43 45 0 0 0
SMALL
GASTEIGER

@<TRIPOS>ATOM
      1 P          21.8236   72.7491   -5.4893 P.3     1  UNL1        0.2189
      2 O          21.3322   74.2856   -5.6187 O.co2   1  UNL1       -0.4371
      3 O          23.1622   72.4584   -6.1021 O.2     1  UNL1       -0.5170
      4 O          20.5818   71.8933   -6.0754 O.3     1  UNL1       -0.3112
      5 C          20.1811   72.1141   -7.4153 C.3     1  UNL1        0.1811
      6 O          19.0881   70.0372   -6.8958 O.3     1  UNL1       -0.3308
      7 O          18.3914   69.8898   -9.8086 O.3     1  UNL1       -0.3794
      8 O          16.0674   70.7671   -8.6837 O.3     1  UNL1       -0.3779
      9 C          18.4692   71.0315   -8.9547 C.3     1  UNL1        0.1713
     10 C          17.2775   71.0704   -8.0217 C.3     1  UNL1        0.1895
     11 C          19.6247   70.8163   -7.9868 C.3     1  UNL1        0.1764
     12 C          17.6545   70.0260   -6.9848 C.3     1  UNL1        0.2383
     13 H          17.6601   70.0042  -10.4361 H       1  UNL1        0.2105
     14 H          15.8712   71.4613   -9.3329 H       1  UNL1        0.2106
     15 O          16.2470   68.1612   -5.3980 O.2     1  UNL1       -0.2464
     16 O          15.5868   71.2447   -2.0364 O.2     1  UNL1       -0.2670
     17 N          17.1040   70.3149   -5.6909 N.ar    1  UNL1       -0.2551
     18 N          15.9187   69.6990   -3.7257 N.ar    1  UNL1       -0.2743
     19 C          16.4144   69.3071   -4.9761 C.ar    1  UNL1        0.3323
     20 C          17.2508   71.5830   -5.1420 C.ar    1  UNL1        0.0869
     21 C          16.7728   71.9417   -3.9489 C.ar    1  UNL1        0.0795
     22 C          16.0390   70.9480   -3.1381 C.ar    1  UNL1        0.2626
     23 H          15.4331   69.0150   -3.2103 H       1  UNL1        0.1734
     24 O          21.7368   72.4731   -3.8990 O.3     1  UNL1       -0.2703
     25 P          22.0635   71.1480   -3.0323 P.3     1  UNL1        0.2208
     26 O          23.6739   71.0240   -3.1391 O.co2   1  UNL1       -0.4371
     27 O          21.3182   69.9226   -3.4761 O.2     1  UNL1       -0.5170
     28 O          21.7889   71.5813   -1.5029 O.3     1  UNL1       -0.2858
     29 O          23.6421   72.6476   -0.4840 O.3     1  UNL1       -0.3226
     30 O          21.0863   72.1562    2.7245 O.3     1  UNL1       -0.3794
     31 O          21.4358   70.0149    0.7682 O.3     1  UNL1       -0.3775
     32 O          21.4047   74.7735    1.5002 O.3     1  UNL1       -0.3792
     33 C          21.4345   72.3686    1.3565 C.3     1  UNL1        0.1718
     34 C          22.2490   71.1800    0.8452 C.3     1  UNL1        0.1968
     35 C          22.2597   73.6547    1.2728 C.3     1  UNL1        0.1723
     36 C          22.8335   71.4717   -0.5376 C.3     1  UNL1        0.2706
     37 C          22.9119   73.8099   -0.0981 C.3     1  UNL1        0.1830
     38 H          20.5614   71.3440    2.8024 H       1  UNL1        0.2105
     39 H          21.0614   69.8241    1.6422 H       1  UNL1        0.2106
     40 H          20.9832   74.6869    2.3695 H       1  UNL1        0.2106
     41 O          24.8976   74.5938    0.8736 O.co2   1  UNL1       -0.5466
     42 O          23.9852   75.8565   -0.7914 O.co2   1  UNL1       -0.5466
     43 C          23.9626   74.8717   -0.0685 C.2     1  UNL1        0.0799
@<TRIPOS>UNITY_ATOM_ATTR
2 1
charge -1
26 1
charge -1
41 1
charge -1
@<TRIPOS>BOND
     1     1     4    1
     2     1    24    1
     3     1     2    1
     4     1     3    2
     5    25    28    1
     6    25    24    1
     7    25    26    1
     8    25    27    2
     9     6    11    1
    10     6    12    1
    11    29    36    1
    12    29    37    1
    13     7     9    1
    14     7    13    1
    15     8    10    1
    16     8    14    1
    17     4     5    1
    18    28    36    1
    19    30    33    1
    20    30    38    1
    21    31    34    1
    22    31    39    1
    23    32    35    1
    24    32    40    1
    25    41    43   ar
    26    15    19    2
    27    42    43   ar
    28    16    22    2
    29    17    12    1
    30    17    19   ar
    31    17    20   ar
    32    18    19   ar
    33    18    22   ar
    34    18    23    1
    35     9    10    1
    36     9    11    1
    37    10    12    1
    38    11     5    1
    39    33    34    1
    40    33    35    1
    41    34    36    1
    42    35    37    1
    43    37    43    1
    44    20    21   ar
    45    21    22   ar
