@<TRIPOS>MOLECULE
UD2
 46 48 0 0 0
SMALL
GASTEIGER

@<TRIPOS>ATOM
      1 P          21.3156   71.6368   -2.9084 P.3     1  UNL1        0.2189
      2 O          22.7355   70.9455   -3.2205 O.3     1  UNL1       -0.4371
      3 O          21.1645   72.8517   -3.7392 O.2     1  UNL1       -0.5170
      4 O          20.1290   70.6026   -3.2489 O.3     1  UNL1       -0.3112
      5 C          18.9584   70.4695   -2.4406 C.3     1  UNL1        0.1811
      6 C          17.1855   70.5010   -5.5699 C.3     1  UNL1        0.2383
      7 C          17.0382   69.0472   -5.0532 C.3     1  UNL1        0.1895
      8 O          15.8036   68.4741   -5.4879 O.3     1  UNL1       -0.3779
      9 C          17.0449   69.2455   -3.5176 C.3     1  UNL1        0.1713
     10 C          17.7133   70.6192   -3.3183 C.3     1  UNL1        0.1764
     11 O          18.0866   71.1060   -4.6172 O.3     1  UNL1       -0.3308
     12 O          15.7094   69.2603   -3.0107 O.3     1  UNL1       -0.3794
     13 H          15.6655   67.5646   -5.1903 H       1  UNL1        0.2106
     14 H          15.2213   68.4397   -3.1620 H       1  UNL1        0.2105
     15 N          17.7691   70.5144   -6.9131 N.ar    1  UNL1       -0.2551
     16 C          16.9656   70.4469   -7.9895 C.ar    1  UNL1        0.3323
     17 N          17.4746   70.4571   -9.2357 N.ar    1  UNL1       -0.2743
     18 C          18.8076   70.5378   -9.4238 C.ar    1  UNL1        0.2626
     19 C          19.6650   70.6105   -8.2997 C.ar    1  UNL1        0.0795
     20 C          19.1271   70.6026   -7.0619 C.ar    1  UNL1        0.0869
     21 O          15.7618   70.3740   -7.8350 O.2     1  UNL1       -0.2464
     22 O          19.2695   70.5475  -10.5512 O.2     1  UNL1       -0.2670
     23 H          16.8812   70.4065  -10.0008 H       1  UNL1        0.1734
     24 O          21.2452   72.0393   -1.3507 O.3     1  UNL1       -0.2703
     25 P          21.9900   71.5102   -0.0247 P.3     1  UNL1        0.2208
     26 O          21.1441   70.3001    0.6187 O.3     1  UNL1       -0.4371
     27 O          23.3446   71.0316   -0.3771 O.2     1  UNL1       -0.5170
     28 O          22.1052   72.7113    1.0415 O.3     1  UNL1       -0.2865
     29 C          22.2141   72.4947    2.4495 C.3     1  UNL1        0.2611
     30 C          21.8343   73.7765    3.1948 C.3     1  UNL1        0.1582
     31 C          22.8195   74.8871    2.8176 C.3     1  UNL1        0.1625
     32 C          24.2423   74.4254    3.1445 C.3     1  UNL1        0.1686
     33 C          24.5293   73.1183    2.4008 C.3     1  UNL1        0.1760
     34 O          22.5169   76.0675    3.5648 O.3     1  UNL1       -0.3801
     35 O          24.3635   74.2114    4.5519 O.3     1  UNL1       -0.3794
     36 O          23.5593   72.1373    2.7734 O.3     1  UNL1       -0.3263
     37 H          23.1023   76.8135    3.3752 H       1  UNL1        0.2105
     38 H          25.2413   73.9159    4.8313 H       1  UNL1        0.2105
     39 C          19.5475   74.3899    3.7709 C.2     1  UNL1        0.2231
     40 C          18.1515   74.8025    3.3845 C.3     1  UNL1        0.0946
     41 N          20.4765   74.1776    2.8181 N.am    1  UNL1       -0.2994
     42 O          19.8364   74.2483    4.9409 O.2     1  UNL1       -0.2751
     43 H          20.2457   74.2896    1.8826 H       1  UNL1        0.1496
     44 C          25.9277   72.6189    2.7689 C.3     1  UNL1        0.1693
     45 O          26.7817   73.7361    3.0233 O.3     1  UNL1       -0.3794
     46 H          27.6866   73.4937    3.2630 H       1  UNL1        0.2105
@<TRIPOS>BOND
     1    29    30    1
     2    30    41    1
     3    30    31    1
     4    31    34    1
     5    31    32    1
     6    32    35    1
     7    32    33    1
     8    33    36    1
     9    33    44    1
    10    39    40    1
    11    39    42    2
    12    39    41   am
    13    41    43    1
    14    29    28    1
    15    34    37    1
    16    35    38    1
    17    29    36    1
    18    44    45    1
    19    45    46    1
    20    15     6    1
    21    15    16   ar
    22    16    21    2
    23    16    17   ar
    24    17    23    1
    25    17    18   ar
    26    18    19   ar
    27    19    20   ar
    28    15    20   ar
    29    18    22    2
    30     6     7    1
    31     6    11    1
    32     7     9    1
    33     7     8    1
    34     8    13    1
    35     9    10    1
    36     9    12    1
    37    10     5    1
    38    10    11    1
    39    12    14    1
    40     5     4    1
    41     4     1    1
    42     1     2    1
    43     1    24    1
    44     1     3    2
    45    24    25    1
    46    28    25    1
    47    25    26    1
    48    25    27    2
@<TRIPOS>MOLECULE
UD2
 46 48 0 0 0
SMALL
GASTEIGER

@<TRIPOS>ATOM
      1 P          21.4568   71.6604   -2.8776 P.3     1  UNL1        0.2189
      2 O          22.8346   70.8478   -3.0586 O.3     1  UNL1       -0.4371
      3 O          21.4641   72.8478   -3.7603 O.2     1  UNL1       -0.5170
      4 O          20.2175   70.7090   -3.2680 O.3     1  UNL1       -0.3112
      5 C          19.0739   70.5387   -2.4286 C.3     1  UNL1        0.1811
      6 C          17.2077   70.5047   -5.5031 C.3     1  UNL1        0.2383
      7 C          17.0952   69.0564   -4.9629 C.3     1  UNL1        0.1895
      8 O          15.8558   68.4615   -5.3524 O.3     1  UNL1       -0.3779
      9 C          17.1453   69.2758   -3.4310 C.3     1  UNL1        0.1713
     10 C          17.8012   70.6605   -3.2702 C.3     1  UNL1        0.1764
     11 O          18.1289   71.1341   -4.5861 O.3     1  UNL1       -0.3308
     12 O          15.8255   69.2804   -2.8843 O.3     1  UNL1       -0.3794
     13 H          15.7387   67.5546   -5.0388 H       1  UNL1        0.2106
     14 H          15.3440   68.4517   -3.0099 H       1  UNL1        0.2105
     15 N          17.7506   70.5072   -6.8634 N.ar    1  UNL1       -0.2551
     16 C          16.9131   70.4745   -7.9152 C.ar    1  UNL1        0.3323
     17 N          17.3843   70.4757   -9.1762 N.ar    1  UNL1       -0.2743
     18 C          18.7129   70.5118   -9.4043 C.ar    1  UNL1        0.2626
     19 C          19.6059   70.5475   -8.3065 C.ar    1  UNL1        0.0795
     20 C          19.1057   70.5497   -7.0529 C.ar    1  UNL1        0.0869
     21 O          15.7127   70.4419   -7.7245 O.2     1  UNL1       -0.2464
     22 O          19.1406   70.5134  -10.5452 O.2     1  UNL1       -0.2670
     23 H          16.7666   70.4507   -9.9232 H       1  UNL1        0.1734
     24 O          21.3087   72.1316   -1.3448 O.3     1  UNL1       -0.2703
     25 P          21.9108   71.6005    0.0510 P.3     1  UNL1        0.2208
     26 O          21.0951   70.2952    0.5248 O.3     1  UNL1       -0.4371
     27 O          23.3374   71.2521   -0.1274 O.2     1  UNL1       -0.5170
     28 O          21.7750   72.7532    1.1671 O.3     1  UNL1       -0.2865
     29 C          22.6067   73.9146    1.1920 C.3     1  UNL1        0.2611
     30 C          23.4564   73.9076    2.4651 C.3     1  UNL1        0.1582
     31 C          22.5327   73.9709    3.6854 C.3     1  UNL1        0.1625
     32 C          21.6524   75.2194    3.5818 C.3     1  UNL1        0.1686
     33 C          20.8720   75.1756    2.2653 C.3     1  UNL1        0.1760
     34 O          23.3198   74.0390    4.8767 O.3     1  UNL1       -0.3801
     35 O          22.4747   76.3874    3.6116 O.3     1  UNL1       -0.3794
     36 O          21.7888   75.0863    1.1728 O.3     1  UNL1       -0.3263
     37 H          22.7985   74.0807    5.6902 H       1  UNL1        0.2105
     38 H          21.9821   77.2177    3.5491 H       1  UNL1        0.2105
     39 C          25.5971   72.7464    2.5454 C.2     1  UNL1        0.2231
     40 C          26.4153   71.4829    2.5980 C.3     1  UNL1        0.0946
     41 N          24.2515   72.6782    2.5160 N.am    1  UNL1       -0.2994
     42 O          26.1494   73.8267    2.5293 O.2     1  UNL1       -0.2751
     43 H          23.8096   71.8147    2.5279 H       1  UNL1        0.1496
     44 C          20.0350   76.4486    2.1264 C.3     1  UNL1        0.1693
     45 O          19.5463   76.8408    3.4108 O.3     1  UNL1       -0.3794
     46 H          19.0059   77.6426    3.3986 H       1  UNL1        0.2105
@<TRIPOS>BOND
     1    29    30    1
     2    30    41    1
     3    30    31    1
     4    31    34    1
     5    31    32    1
     6    32    35    1
     7    32    33    1
     8    33    36    1
     9    33    44    1
    10    39    40    1
    11    39    42    2
    12    39    41   am
    13    41    43    1
    14    29    28    1
    15    34    37    1
    16    35    38    1
    17    29    36    1
    18    44    45    1
    19    45    46    1
    20    15     6    1
    21    15    16   ar
    22    16    21    2
    23    16    17   ar
    24    17    23    1
    25    17    18   ar
    26    18    19   ar
    27    19    20   ar
    28    15    20   ar
    29    18    22    2
    30     6     7    1
    31     6    11    1
    32     7     9    1
    33     7     8    1
    34     8    13    1
    35     9    10    1
    36     9    12    1
    37    10     5    1
    38    10    11    1
    39    12    14    1
    40     5     4    1
    41     4     1    1
    42     1     2    1
    43     1    24    1
    44     1     3    2
    45    24    25    1
    46    28    25    1
    47    25    26    1
    48    25    27    2
@<TRIPOS>MOLECULE
UD2
 46 48 0 0 0
SMALL
GASTEIGER

@<TRIPOS>ATOM
      1 P          20.7905   70.9612   -3.5969 P.3     1  UNL1        0.2189
      2 O          20.4852   69.4539   -4.0726 O.3     1  UNL1       -0.4371
      3 O          21.5228   71.6773   -4.6645 O.2     1  UNL1       -0.5170
      4 O          19.4025   71.7204   -3.2960 O.3     1  UNL1       -0.3112
      5 C          18.3042   71.0963   -2.6282 C.3     1  UNL1        0.1811
      6 C          16.8474   70.5076   -5.8636 C.3     1  UNL1        0.2383
      7 C          16.9030   69.1077   -5.2007 C.3     1  UNL1        0.1895
      8 O          15.8293   68.2836   -5.6586 O.3     1  UNL1       -0.3779
      9 C          16.7344   69.4514   -3.7004 C.3     1  UNL1        0.1713
     10 C          17.1379   70.9353   -3.6064 C.3     1  UNL1        0.1764
     11 O          17.5408   71.3532   -4.9204 O.3     1  UNL1       -0.3308
     12 O          15.3750   69.2758   -3.2980 O.3     1  UNL1       -0.3794
     13 H          15.8213   67.3972   -5.2727 H       1  UNL1        0.2106
     14 H          15.0499   68.3704   -3.3926 H       1  UNL1        0.2105
     15 N          17.5413   70.4954   -7.1533 N.ar    1  UNL1       -0.2551
     16 C          16.8288   70.5223   -8.2937 C.ar    1  UNL1        0.3323
     17 N          17.4402   70.5117   -9.4930 N.ar    1  UNL1       -0.2743
     18 C          18.7861   70.4757   -9.5684 C.ar    1  UNL1        0.2626
     19 C          19.5486   70.4482   -8.3760 C.ar    1  UNL1        0.0795
     20 C          18.9095   70.4638   -7.1874 C.ar    1  UNL1        0.0869
     21 O          15.6145   70.5551   -8.2408 O.2     1  UNL1       -0.2464
     22 O          19.3407   70.4666  -10.6532 O.2     1  UNL1       -0.2670
     23 H          16.9113   70.5302  -10.3055 H       1  UNL1        0.1734
     24 O          21.6860   70.9309   -2.2588 O.3     1  UNL1       -0.2703
     25 P          23.1521   71.4800   -1.8822 P.3     1  UNL1        0.2208
     26 O          23.5633   70.9502   -0.4179 O.3     1  UNL1       -0.4371
     27 O          24.1326   70.9911   -2.8762 O.2     1  UNL1       -0.5170
     28 O          23.1397   73.0901   -1.8869 O.3     1  UNL1       -0.2865
     29 C          22.8950   73.8701   -0.7152 C.3     1  UNL1        0.2611
     30 C          22.6977   72.9413    0.4853 C.3     1  UNL1        0.1582
     31 C          21.4650   72.0646    0.2444 C.3     1  UNL1        0.1625
     32 C          20.2508   72.9652    0.0016 C.3     1  UNL1        0.1686
     33 C          20.5425   73.8933   -1.1805 C.3     1  UNL1        0.1760
     34 O          21.2302   71.2455    1.3921 O.3     1  UNL1       -0.3801
     35 O          19.9939   73.7459    1.1703 O.3     1  UNL1       -0.3794
     36 O          21.7179   74.6579   -0.9051 O.3     1  UNL1       -0.3263
     37 H          20.4631   70.6626    1.3086 H       1  UNL1        0.2105
     38 H          19.2364   74.3420    1.0873 H       1  UNL1        0.2105
     39 C          24.4625   71.9668    1.8541 C.2     1  UNL1        0.2231
     40 C          25.6776   71.0924    2.0195 C.3     1  UNL1        0.0946
     41 N          23.8799   72.0907    0.6453 N.am    1  UNL1       -0.2994
     42 O          24.0075   72.5604    2.8096 O.2     1  UNL1       -0.2751
     43 H          24.2439   71.6171   -0.1191 H       1  UNL1        0.1496
     44 C          19.3574   74.8375   -1.3919 C.3     1  UNL1        0.1693
     45 O          18.1446   74.1657   -1.0454 O.3     1  UNL1       -0.3794
     46 H          17.3500   74.7058   -1.1552 H       1  UNL1        0.2105
@<TRIPOS>BOND
     1    29    30    1
     2    30    41    1
     3    30    31    1
     4    31    34    1
     5    31    32    1
     6    32    35    1
     7    32    33    1
     8    33    36    1
     9    33    44    1
    10    39    40    1
    11    39    42    2
    12    39    41   am
    13    41    43    1
    14    29    28    1
    15    34    37    1
    16    35    38    1
    17    29    36    1
    18    44    45    1
    19    45    46    1
    20    15     6    1
    21    15    16   ar
    22    16    21    2
    23    16    17   ar
    24    17    23    1
    25    17    18   ar
    26    18    19   ar
    27    19    20   ar
    28    15    20   ar
    29    18    22    2
    30     6     7    1
    31     6    11    1
    32     7     9    1
    33     7     8    1
    34     8    13    1
    35     9    10    1
    36     9    12    1
    37    10     5    1
    38    10    11    1
    39    12    14    1
    40     5     4    1
    41     4     1    1
    42     1     2    1
    43     1    24    1
    44     1     3    2
    45    24    25    1
    46    28    25    1
    47    25    26    1
    48    25    27    2
@<TRIPOS>MOLECULE
UD2
 46 48 0 0 0
SMALL
GASTEIGER

@<TRIPOS>ATOM
      1 P          20.7159   70.8780   -3.3189 P.3     1  UNL1        0.2189
      2 O          21.0299   70.5556   -1.7733 O.3     1  UNL1       -0.4371
      3 O          20.5076   69.6117   -4.0552 O.2     1  UNL1       -0.5170
      4 O          19.3868   71.7820   -3.4191 O.3     1  UNL1       -0.3112
      5 C          18.2032   71.5098   -2.6665 C.3     1  UNL1        0.1811
      6 C          16.8441   70.5028   -5.8406 C.3     1  UNL1        0.2383
      7 C          17.0986   69.1731   -5.0862 C.3     1  UNL1        0.1895
      8 O          16.1530   68.1758   -5.4773 O.3     1  UNL1       -0.3779
      9 C          16.8833   69.5900   -3.6106 C.3     1  UNL1        0.1713
     10 C          17.0714   71.1191   -3.6201 C.3     1  UNL1        0.1764
     11 O          17.4103   71.5002   -4.9630 O.3     1  UNL1       -0.3308
     12 O          15.5628   69.2507   -3.1839 O.3     1  UNL1       -0.3794
     13 H          16.2714   67.3254   -5.0329 H       1  UNL1        0.2106
     14 H          15.3699   68.3040   -3.2145 H       1  UNL1        0.2105
     15 N          17.5323   70.5022   -7.1335 N.ar    1  UNL1       -0.2551
     16 C          16.8142   70.5134   -8.2706 C.ar    1  UNL1        0.3323
     17 N          17.4203   70.5130   -9.4727 N.ar    1  UNL1       -0.2743
     18 C          18.7663   70.5031   -9.5541 C.ar    1  UNL1        0.2626
     19 C          19.5346   70.4922   -8.3651 C.ar    1  UNL1        0.0795
     20 C          18.9006   70.4972   -7.1737 C.ar    1  UNL1        0.0869
     21 O          15.5998   70.5227   -8.2123 O.2     1  UNL1       -0.2464
     22 O          19.3160   70.5030  -10.6415 O.2     1  UNL1       -0.2670
     23 H          16.8875   70.5199  -10.2828 H       1  UNL1        0.1734
     24 O          21.9569   71.6763   -3.9638 O.3     1  UNL1       -0.2703
     25 P          23.3717   72.1925   -3.3937 P.3     1  UNL1        0.2208
     26 O          24.2455   70.9309   -2.9054 O.3     1  UNL1       -0.4371
     27 O          24.1004   72.9132   -4.4604 O.2     1  UNL1       -0.5170
     28 O          23.1195   73.1846   -2.1508 O.3     1  UNL1       -0.2865
     29 C          24.1565   73.9680   -1.5572 C.3     1  UNL1        0.2611
     30 C          23.9997   73.9544   -0.0348 C.3     1  UNL1        0.1582
     31 C          22.6602   74.5971    0.3377 C.3     1  UNL1        0.1625
     32 C          22.6087   76.0148   -0.2385 C.3     1  UNL1        0.1686
     33 C          22.8191   75.9489   -1.7535 C.3     1  UNL1        0.1760
     34 O          22.5380   74.6552    1.7607 O.3     1  UNL1       -0.3801
     35 O          23.6388   76.8086    0.3532 O.3     1  UNL1       -0.3794
     36 O          24.0680   75.3130   -2.0322 O.3     1  UNL1       -0.3263
     37 H          21.7110   75.0511    2.0683 H       1  UNL1        0.2105
     38 H          23.6658   77.7212    0.0333 H       1  UNL1        0.2105
     39 C          24.7067   72.2647    1.5724 C.2     1  UNL1        0.2231
     40 C          24.7384   70.8433    2.0694 C.3     1  UNL1        0.0946
     41 N          24.0303   72.5714    0.4479 N.am    1  UNL1       -0.2994
     42 O          25.2905   73.1347    2.1844 O.2     1  UNL1       -0.2751
     43 H          23.5642   71.8760   -0.0423 H       1  UNL1        0.1496
     44 C          22.8286   77.3664   -2.3289 C.3     1  UNL1        0.1693
     45 O          24.1677   77.8651   -2.3468 O.3     1  UNL1       -0.3794
     46 H          24.2496   78.7615   -2.7002 H       1  UNL1        0.2105
@<TRIPOS>BOND
     1    29    30    1
     2    30    41    1
     3    30    31    1
     4    31    34    1
     5    31    32    1
     6    32    35    1
     7    32    33    1
     8    33    36    1
     9    33    44    1
    10    39    40    1
    11    39    42    2
    12    39    41   am
    13    41    43    1
    14    29    28    1
    15    34    37    1
    16    35    38    1
    17    29    36    1
    18    44    45    1
    19    45    46    1
    20    15     6    1
    21    15    16   ar
    22    16    21    2
    23    16    17   ar
    24    17    23    1
    25    17    18   ar
    26    18    19   ar
    27    19    20   ar
    28    15    20   ar
    29    18    22    2
    30     6     7    1
    31     6    11    1
    32     7     9    1
    33     7     8    1
    34     8    13    1
    35     9    10    1
    36     9    12    1
    37    10     5    1
    38    10    11    1
    39    12    14    1
    40     5     4    1
    41     4     1    1
    42     1     2    1
    43     1    24    1
    44     1     3    2
    45    24    25    1
    46    28    25    1
    47    25    26    1
    48    25    27    2
@<TRIPOS>MOLECULE
UD2
 46 48 0 0 0
SMALL
GASTEIGER

@<TRIPOS>ATOM
      1 P          20.7639   71.0618   -3.1611 P.3     1  UNL1        0.2189
      2 O          20.9249   70.4755   -1.6705 O.3     1  UNL1       -0.4371
      3 O          20.8724   69.9581   -4.1403 O.2     1  UNL1       -0.5170
      4 O          19.3244   71.7691   -3.3068 O.3     1  UNL1       -0.3112
      5 C          18.1672   71.3306   -2.5926 C.3     1  UNL1        0.1811
      6 C          16.7934   70.5644   -5.8271 C.3     1  UNL1        0.2383
      7 C          16.9227   69.1897   -5.1231 C.3     1  UNL1        0.1895
      8 O          15.9064   68.2901   -5.5699 O.3     1  UNL1       -0.3779
      9 C          16.7131   69.5651   -3.6356 C.3     1  UNL1        0.1713
     10 C          17.0263   71.0725   -3.5799 C.3     1  UNL1        0.1764
     11 O          17.4220   71.4763   -4.9004 O.3     1  UNL1       -0.3308
     12 O          15.3610   69.3200   -3.2450 O.3     1  UNL1       -0.3794
     13 H          15.9457   67.4162   -5.1585 H       1  UNL1        0.2106
     14 H          15.0916   68.3944   -3.3172 H       1  UNL1        0.2105
     15 N          17.5048   70.5572   -7.1073 N.ar    1  UNL1       -0.2551
     16 C          16.8073   70.5575   -8.2573 C.ar    1  UNL1        0.3323
     17 N          17.4350   70.5508   -9.4482 N.ar    1  UNL1       -0.2743
     18 C          18.7823   70.5455   -9.5053 C.ar    1  UNL1        0.2626
     19 C          19.5290   70.5462   -8.3026 C.ar    1  UNL1        0.0795
     20 C          18.8736   70.5572   -7.1228 C.ar    1  UNL1        0.0869
     21 O          15.5920   70.5625   -8.2209 O.2     1  UNL1       -0.2464
     22 O          19.3516   70.5399  -10.5825 O.2     1  UNL1       -0.2670
     23 H          16.9169   70.5500  -10.2677 H       1  UNL1        0.1734
     24 O          21.9234   72.1438   -3.4406 O.3     1  UNL1       -0.2703
     25 P          23.5129   72.1706   -3.1840 P.3     1  UNL1        0.2208
     26 O          24.0707   70.6612   -3.1175 O.3     1  UNL1       -0.4371
     27 O          24.1792   72.8938   -4.2891 O.2     1  UNL1       -0.5170
     28 O          23.8190   72.9182   -1.7912 O.3     1  UNL1       -0.2865
     29 C          22.8892   73.8010   -1.1608 C.3     1  UNL1        0.2611
     30 C          23.6518   74.8929   -0.4064 C.3     1  UNL1        0.1582
     31 C          24.4978   74.2453    0.6941 C.3     1  UNL1        0.1625
     32 C          23.5830   73.4340    1.6156 C.3     1  UNL1        0.1686
     33 C          22.8229   72.3980    0.7831 C.3     1  UNL1        0.1760
     34 O          25.1565   75.2634    1.4510 O.3     1  UNL1       -0.3801
     35 O          22.6524   74.3089    2.2558 O.3     1  UNL1       -0.3794
     36 O          22.0813   73.0636   -0.2411 O.3     1  UNL1       -0.3263
     37 H          25.7118   74.9240    2.1663 H       1  UNL1        0.2105
     38 H          22.0393   73.8613    2.8556 H       1  UNL1        0.2105
     39 C          24.1095   76.7625   -1.9007 C.2     1  UNL1        0.2231
     40 C          25.0076   77.5018   -2.8575 C.3     1  UNL1        0.0946
     41 N          24.5259   75.6113   -1.3372 N.am    1  UNL1       -0.2994
     42 O          23.0102   77.2032   -1.6368 O.2     1  UNL1       -0.2751
     43 H          25.4043   75.2581   -1.5486 H       1  UNL1        0.1496
     44 C          21.8624   71.6230    1.6871 C.3     1  UNL1        0.1693
     45 O          21.6644   70.3101    1.1585 O.3     1  UNL1       -0.3794
     46 H          21.0649   69.7610    1.6820 H       1  UNL1        0.2105
@<TRIPOS>BOND
     1    29    30    1
     2    30    41    1
     3    30    31    1
     4    31    34    1
     5    31    32    1
     6    32    35    1
     7    32    33    1
     8    33    36    1
     9    33    44    1
    10    39    40    1
    11    39    42    2
    12    39    41   am
    13    41    43    1
    14    29    28    1
    15    34    37    1
    16    35    38    1
    17    29    36    1
    18    44    45    1
    19    45    46    1
    20    15     6    1
    21    15    16   ar
    22    16    21    2
    23    16    17   ar
    24    17    23    1
    25    17    18   ar
    26    18    19   ar
    27    19    20   ar
    28    15    20   ar
    29    18    22    2
    30     6     7    1
    31     6    11    1
    32     7     9    1
    33     7     8    1
    34     8    13    1
    35     9    10    1
    36     9    12    1
    37    10     5    1
    38    10    11    1
    39    12    14    1
    40     5     4    1
    41     4     1    1
    42     1     2    1
    43     1    24    1
    44     1     3    2
    45    24    25    1
    46    28    25    1
    47    25    26    1
    48    25    27    2
@<TRIPOS>MOLECULE
UD2
 46 48 0 0 0
SMALL
GASTEIGER

@<TRIPOS>ATOM
      1 P          20.7604   70.9722   -3.1781 P.3     1  UNL1        0.2189
      2 O          20.5802   69.6699   -4.1070 O.3     1  UNL1       -0.4371
      3 O          21.6410   71.9467   -3.8591 O.2     1  UNL1       -0.5170
      4 O          19.3213   71.6442   -2.9114 O.3     1  UNL1       -0.3112
      5 C          18.2251   70.9310   -2.3359 C.3     1  UNL1        0.1811
      6 C          16.8220   70.5840   -5.6295 C.3     1  UNL1        0.2383
      7 C          16.8280   69.1446   -5.0548 C.3     1  UNL1        0.1895
      8 O          15.7436   68.3794   -5.5842 O.3     1  UNL1       -0.3779
      9 C          16.6369   69.3985   -3.5394 C.3     1  UNL1        0.1713
     10 C          17.0759   70.8624   -3.3446 C.3     1  UNL1        0.1764
     11 O          17.5167   71.3504   -4.6217 O.3     1  UNL1       -0.3308
     12 O          15.2653   69.2345   -3.1752 O.3     1  UNL1       -0.3794
     13 H          15.7050   67.4713   -5.2550 H       1  UNL1        0.2106
     14 H          14.9193   68.3457   -3.3327 H       1  UNL1        0.2105
     15 N          17.5422   70.6337   -6.9037 N.ar    1  UNL1       -0.2551
     16 C          16.8620   70.5216   -8.0585 C.ar    1  UNL1        0.3323
     17 N          17.4981   70.5636   -9.2442 N.ar    1  UNL1       -0.2743
     18 C          18.8365   70.7218   -9.2911 C.ar    1  UNL1        0.2626
     19 C          19.5650   70.8420   -8.0832 C.ar    1  UNL1        0.0795
     20 C          18.9009   70.8007   -6.9090 C.ar    1  UNL1        0.0869
     21 O          15.6548   70.3788   -8.0313 O.2     1  UNL1       -0.2464
     22 O          19.4134   70.7604  -10.3636 O.2     1  UNL1       -0.2670
     23 H          16.9925   70.4801  -10.0673 H       1  UNL1        0.1734
     24 O          21.4199   70.5426   -1.7732 O.3     1  UNL1       -0.2703
     25 P          21.7036   71.3148   -0.3889 P.3     1  UNL1        0.2208
     26 O          21.6517   70.2647    0.8311 O.3     1  UNL1       -0.4371
     27 O          23.0410   71.9448   -0.4402 O.2     1  UNL1       -0.5170
     28 O          20.5832   72.4500   -0.1684 O.3     1  UNL1       -0.2865
     29 C          20.8962   73.8381   -0.0398 C.3     1  UNL1        0.2611
     30 C          22.4128   74.0294   -0.1167 C.3     1  UNL1        0.1582
     31 C          23.0716   73.2937    1.0543 C.3     1  UNL1        0.1625
     32 C          22.4860   73.8194    2.3678 C.3     1  UNL1        0.1686
     33 C          20.9661   73.6361    2.3488 C.3     1  UNL1        0.1760
     34 O          24.4815   73.5277    1.0324 O.3     1  UNL1       -0.3801
     35 O          22.7986   75.2063    2.5088 O.3     1  UNL1       -0.3794
     36 O          20.4196   74.3189    1.2188 O.3     1  UNL1       -0.3263
     37 H          24.9636   73.0900    1.7474 H       1  UNL1        0.2105
     38 H          22.4571   75.6066    3.3207 H       1  UNL1        0.2105
     39 C          23.7849   74.1910   -2.1240 C.2     1  UNL1        0.2231
     40 C          24.2982   73.6296   -3.4239 C.3     1  UNL1        0.0946
     41 N          22.9115   73.4827   -1.3812 N.am    1  UNL1       -0.2994
     42 O          24.1575   75.2817   -1.7448 O.2     1  UNL1       -0.2751
     43 H          22.6126   72.6111   -1.6844 H       1  UNL1        0.1496
     44 C          20.3670   74.2133    3.6327 C.3     1  UNL1        0.1693
     45 O          19.3470   73.3383    4.1186 O.3     1  UNL1       -0.3794
     46 H          18.9222   73.6421    4.9324 H       1  UNL1        0.2105
@<TRIPOS>BOND
     1    29    30    1
     2    30    41    1
     3    30    31    1
     4    31    34    1
     5    31    32    1
     6    32    35    1
     7    32    33    1
     8    33    36    1
     9    33    44    1
    10    39    40    1
    11    39    42    2
    12    39    41   am
    13    41    43    1
    14    29    28    1
    15    34    37    1
    16    35    38    1
    17    29    36    1
    18    44    45    1
    19    45    46    1
    20    15     6    1
    21    15    16   ar
    22    16    21    2
    23    16    17   ar
    24    17    23    1
    25    17    18   ar
    26    18    19   ar
    27    19    20   ar
    28    15    20   ar
    29    18    22    2
    30     6     7    1
    31     6    11    1
    32     7     9    1
    33     7     8    1
    34     8    13    1
    35     9    10    1
    36     9    12    1
    37    10     5    1
    38    10    11    1
    39    12    14    1
    40     5     4    1
    41     4     1    1
    42     1     2    1
    43     1    24    1
    44     1     3    2
    45    24    25    1
    46    28    25    1
    47    25    26    1
    48    25    27    2
@<TRIPOS>MOLECULE
UD2
 46 48 0 0 0
SMALL
GASTEIGER

@<TRIPOS>ATOM
      1 P          21.8281   72.4711   -6.0791 P.3     1  UNL1        0.2189
      2 O          23.0505   73.1929   -6.8381 O.3     1  UNL1       -0.4371
      3 O          20.7219   73.4361   -5.8953 O.2     1  UNL1       -0.5170
      4 O          21.3122   71.2241   -6.9581 O.3     1  UNL1       -0.3112
      5 C          20.5584   71.3807   -8.1616 C.3     1  UNL1        0.1811
      6 C          17.3997   70.1947   -6.9155 C.3     1  UNL1        0.2383
      7 C          17.0261   71.1558   -8.0726 C.3     1  UNL1        0.1895
      8 O          15.8129   70.7445   -8.7058 O.3     1  UNL1       -0.3779
      9 C          18.2314   70.9949   -9.0311 C.3     1  UNL1        0.1713
     10 C          19.3534   70.4371   -8.1347 C.3     1  UNL1        0.1764
     11 O          18.8308   70.3497   -6.7996 O.3     1  UNL1       -0.3308
     12 O          17.9188   70.0712  -10.0751 O.3     1  UNL1       -0.3794
     13 H          15.5371   71.3149   -9.4360 H       1  UNL1        0.2106
     14 H          17.1797   70.3446  -10.6349 H       1  UNL1        0.2105
     15 N          16.7344   70.5983   -5.6747 N.ar    1  UNL1       -0.2551
     16 C          16.4549   69.6749   -4.7377 C.ar    1  UNL1        0.3323
     17 N          15.8441   70.0173   -3.5880 N.ar    1  UNL1       -0.2743
     18 C          15.5027   71.3014   -3.3571 C.ar    1  UNL1        0.2626
     19 C          15.7919   72.2840   -4.3344 C.ar    1  UNL1        0.0795
     20 C          16.4088   71.9130   -5.4760 C.ar    1  UNL1        0.0869
     21 O          16.7571   68.5133   -4.9323 O.2     1  UNL1       -0.2464
     22 O          14.9502   71.6127   -2.3168 O.2     1  UNL1       -0.2670
     23 H          15.6488   69.3388   -2.9235 H       1  UNL1        0.1734
     24 O          22.3253   71.9438   -4.6410 O.3     1  UNL1       -0.2703
     25 P          23.3629   72.5020   -3.5433 P.3     1  UNL1        0.2208
     26 O          23.6726   71.3484   -2.4630 O.3     1  UNL1       -0.4371
     27 O          24.6207   72.9018   -4.2114 O.2     1  UNL1       -0.5170
     28 O          22.7215   73.7772   -2.7983 O.3     1  UNL1       -0.2865
     29 C          21.7501   73.6631   -1.7568 C.3     1  UNL1        0.2611
     30 C          22.3670   72.9350   -0.5601 C.3     1  UNL1        0.1582
     31 C          22.7625   71.5173   -0.9845 C.3     1  UNL1        0.1625
     32 C          21.5269   70.7956   -1.5291 C.3     1  UNL1        0.1686
     33 C          20.9424   71.6064   -2.6888 C.3     1  UNL1        0.1760
     34 O          23.2720   70.8056    0.1457 O.3     1  UNL1       -0.3801
     35 O          20.5510   70.6711   -0.4930 O.3     1  UNL1       -0.3794
     36 O          20.6246   72.9234   -2.2346 O.3     1  UNL1       -0.3263
     37 H          23.5433   69.8985   -0.0510 H       1  UNL1        0.2105
     38 H          19.7391   70.2228   -0.7683 H       1  UNL1        0.2105
     39 C          23.6753   74.0169    1.1879 C.2     1  UNL1        0.2231
     40 C          24.8979   74.7621    1.6554 C.3     1  UNL1        0.0946
     41 N          23.5564   73.6601   -0.1061 N.am    1  UNL1       -0.2994
     42 O          22.7965   73.7375    1.9765 O.2     1  UNL1       -0.2751
     43 H          24.2582   73.8842   -0.7372 H       1  UNL1        0.1496
     44 C          19.6729   70.9226   -3.1999 C.3     1  UNL1        0.1693
     45 O          18.5886   71.2054   -2.3130 O.3     1  UNL1       -0.3794
     46 H          17.7496   70.8027   -2.5756 H       1  UNL1        0.2105
@<TRIPOS>BOND
     1    29    30    1
     2    30    41    1
     3    30    31    1
     4    31    34    1
     5    31    32    1
     6    32    35    1
     7    32    33    1
     8    33    36    1
     9    33    44    1
    10    39    40    1
    11    39    42    2
    12    39    41   am
    13    41    43    1
    14    29    28    1
    15    34    37    1
    16    35    38    1
    17    29    36    1
    18    44    45    1
    19    45    46    1
    20    15     6    1
    21    15    16   ar
    22    16    21    2
    23    16    17   ar
    24    17    23    1
    25    17    18   ar
    26    18    19   ar
    27    19    20   ar
    28    15    20   ar
    29    18    22    2
    30     6     7    1
    31     6    11    1
    32     7     9    1
    33     7     8    1
    34     8    13    1
    35     9    10    1
    36     9    12    1
    37    10     5    1
    38    10    11    1
    39    12    14    1
    40     5     4    1
    41     4     1    1
    42     1     2    1
    43     1    24    1
    44     1     3    2
    45    24    25    1
    46    28    25    1
    47    25    26    1
    48    25    27    2
@<TRIPOS>MOLECULE
UD2
 46 48 0 0 0
SMALL
GASTEIGER

@<TRIPOS>ATOM
      1 P          16.3275   69.6654   -2.4371 P.3     1  UNL1        0.2189
      2 O          17.1235   68.2806   -2.2366 O.3     1  UNL1       -0.4371
      3 O          15.9939   69.8407   -3.8678 O.2     1  UNL1       -0.5170
      4 O          14.9710   69.6348   -1.5695 O.3     1  UNL1       -0.3112
      5 C          14.7954   68.7894   -0.4312 C.3     1  UNL1        0.1811
      6 C          11.9740   67.7339    1.5340 C.3     1  UNL1        0.2383
      7 C          12.2452   69.1896    1.9919 C.3     1  UNL1        0.1895
      8 O          11.0338   69.8318    2.3943 O.3     1  UNL1       -0.3779
      9 C          12.8113   69.8356    0.7037 C.3     1  UNL1        0.1713
     10 C          13.3015   68.6389   -0.1336 C.3     1  UNL1        0.1764
     11 O          13.0750   67.4519    0.6431 O.3     1  UNL1       -0.3308
     12 O          11.7847   70.5456    0.0089 O.3     1  UNL1       -0.3794
     13 H          11.1517   70.7447    2.6899 H       1  UNL1        0.2106
     14 H          11.3985   71.2740    0.5137 H       1  UNL1        0.2105
     15 N          11.9900   66.8215    2.6795 N.ar    1  UNL1       -0.2551
     16 C          13.1613   66.3368    3.1291 C.ar    1  UNL1        0.3323
     17 N          13.2057   65.4963    4.1797 N.ar    1  UNL1       -0.2743
     18 C          12.0679   65.1272    4.8023 C.ar    1  UNL1        0.2626
     19 C          10.8280   65.6306    4.3403 C.ar    1  UNL1        0.0795
     20 C          10.8134   66.4750    3.2874 C.ar    1  UNL1        0.0869
     21 O          14.1952   66.6612    2.5776 O.2     1  UNL1       -0.2464
     22 O          12.1068   64.3669    5.7536 O.2     1  UNL1       -0.2670
     23 H          14.0586   65.1552    4.4903 H       1  UNL1        0.1734
     24 O          17.2499   70.8909   -1.9466 O.3     1  UNL1       -0.2703
     25 P          18.7447   71.3755   -2.2984 P.3     1  UNL1        0.2208
     26 O          19.1044   72.6808   -1.4262 O.3     1  UNL1       -0.4371
     27 O          19.7018   70.2927   -1.9823 O.2     1  UNL1       -0.5170
     28 O          18.8377   71.7342   -3.8653 O.3     1  UNL1       -0.2865
     29 C          19.6278   70.9845   -4.7900 C.3     1  UNL1        0.2611
     30 C          20.5265   71.9360   -5.5834 C.3     1  UNL1        0.1582
     31 C          19.6499   72.8967   -6.3927 C.3     1  UNL1        0.1625
     32 C          18.7222   72.0832   -7.2994 C.3     1  UNL1        0.1686
     33 C          17.8927   71.1258   -6.4395 C.3     1  UNL1        0.1760
     34 O          20.4803   73.7409   -7.1933 O.3     1  UNL1       -0.3801
     35 O          19.5027   71.3337   -8.2323 O.3     1  UNL1       -0.3794
     36 O          18.7684   70.2815   -5.6897 O.3     1  UNL1       -0.3263
     37 H          19.9903   74.3766   -7.7328 H       1  UNL1        0.2105
     38 H          18.9787   70.7928   -8.8396 H       1  UNL1        0.2105
     39 C          22.6699   72.8988   -4.9379 C.2     1  UNL1        0.2231
     40 C          23.5340   73.6854   -3.9875 C.3     1  UNL1        0.0946
     41 N          21.3665   72.7011   -4.6584 N.am    1  UNL1       -0.2994
     42 O          23.1471   72.4426   -5.9559 O.2     1  UNL1       -0.2751
     43 H          20.9848   73.0648   -3.8441 H       1  UNL1        0.1496
     44 C          17.0059   70.2672   -7.3434 C.3     1  UNL1        0.1693
     45 O          15.6398   70.6520   -7.1760 O.3     1  UNL1       -0.3794
     46 H          15.0192   70.1480   -7.7199 H       1  UNL1        0.2105
@<TRIPOS>BOND
     1    29    30    1
     2    30    41    1
     3    30    31    1
     4    31    34    1
     5    31    32    1
     6    32    35    1
     7    32    33    1
     8    33    36    1
     9    33    44    1
    10    39    40    1
    11    39    42    2
    12    39    41   am
    13    41    43    1
    14    29    28    1
    15    34    37    1
    16    35    38    1
    17    29    36    1
    18    44    45    1
    19    45    46    1
    20    15     6    1
    21    15    16   ar
    22    16    21    2
    23    16    17   ar
    24    17    23    1
    25    17    18   ar
    26    18    19   ar
    27    19    20   ar
    28    15    20   ar
    29    18    22    2
    30     6     7    1
    31     6    11    1
    32     7     9    1
    33     7     8    1
    34     8    13    1
    35     9    10    1
    36     9    12    1
    37    10     5    1
    38    10    11    1
    39    12    14    1
    40     5     4    1
    41     4     1    1
    42     1     2    1
    43     1    24    1
    44     1     3    2
    45    24    25    1
    46    28    25    1
    47    25    26    1
    48    25    27    2
@<TRIPOS>MOLECULE
UD2
 46 48 0 0 0
SMALL
GASTEIGER

@<TRIPOS>ATOM
      1 P          21.7631   71.5769   -0.5152 P.3     1  UNL1        0.2189
      2 O          22.8458   70.8126   -1.4289 O.3     1  UNL1       -0.4371
      3 O          21.1513   70.6187    0.4315 O.2     1  UNL1       -0.5170
      4 O          22.4912   72.7542    0.3080 O.3     1  UNL1       -0.3112
      5 C          23.8952   72.7638    0.5729 C.3     1  UNL1        0.1811
      6 C          25.9097   73.7210    3.3946 C.3     1  UNL1        0.2383
      7 C          26.1138   74.8615    2.3651 C.3     1  UNL1        0.1895
      8 O          26.3517   76.1069    3.0241 O.3     1  UNL1       -0.3779
      9 C          24.7539   74.8791    1.6252 C.3     1  UNL1        0.1713
     10 C          24.1591   73.4842    1.8973 C.3     1  UNL1        0.1764
     11 O          25.1237   72.7509    2.6689 O.3     1  UNL1       -0.3308
     12 O          23.9074   75.8975    2.1611 O.3     1  UNL1       -0.3794
     13 H          26.4862   76.8513    2.4221 H       1  UNL1        0.2106
     14 H          24.2614   76.7924    2.0700 H       1  UNL1        0.2105
     15 N          27.1977   73.1485    3.7923 N.ar    1  UNL1       -0.2551
     16 C          27.8376   73.6330    4.8715 C.ar    1  UNL1        0.3323
     17 N          29.0227   73.1260    5.2598 N.ar    1  UNL1       -0.2743
     18 C          29.5884   72.1162    4.5679 C.ar    1  UNL1        0.2626
     19 C          28.9254   71.5959    3.4304 C.ar    1  UNL1        0.0795
     20 C          27.7364   72.1204    3.0663 C.ar    1  UNL1        0.0869
     21 O          27.3391   74.5432    5.5050 O.2     1  UNL1       -0.2464
     22 O          30.6608   71.6562    4.9185 O.2     1  UNL1       -0.2670
     23 H          29.4711   73.4878    6.0396 H       1  UNL1        0.1734
     24 O          20.6181   72.2089   -1.4548 O.3     1  UNL1       -0.2703
     25 P          19.2373   71.6485   -2.0650 P.3     1  UNL1        0.2208
     26 O          19.1326   70.0653   -1.7890 O.3     1  UNL1       -0.4371
     27 O          18.0975   72.3373   -1.4209 O.2     1  UNL1       -0.5170
     28 O          19.2023   71.9206   -3.6516 O.3     1  UNL1       -0.2865
     29 C          19.6096   70.9495   -4.6171 C.3     1  UNL1        0.2611
     30 C          19.6712   71.5995   -6.0015 C.3     1  UNL1        0.1582
     31 C          18.2713   72.0841   -6.3912 C.3     1  UNL1        0.1625
     32 C          17.3025   70.8992   -6.3489 C.3     1  UNL1        0.1686
     33 C          17.3322   70.2760   -4.9508 C.3     1  UNL1        0.1760
     34 O          18.3050   72.6265   -7.7133 O.3     1  UNL1       -0.3801
     35 O          17.6979   69.9241   -7.3155 O.3     1  UNL1       -0.3794
     36 O          18.6676   69.8750   -4.6381 O.3     1  UNL1       -0.3263
     37 H          17.4504   72.9541   -8.0255 H       1  UNL1        0.2105
     38 H          17.1274   69.1433   -7.3436 H       1  UNL1        0.2105
     39 C          21.4045   72.9810   -7.0138 C.2     1  UNL1        0.2231
     40 C          22.3509   74.1523   -6.9787 C.3     1  UNL1        0.0946
     41 N          20.5917   72.7388   -5.9665 N.am    1  UNL1       -0.2994
     42 O          21.3736   72.2548   -7.9853 O.2     1  UNL1       -0.2751
     43 H          20.6168   73.3186   -5.1892 H       1  UNL1        0.1496
     44 C          16.4115   69.0547   -4.9174 C.3     1  UNL1        0.1693
     45 O          15.6410   69.0709   -3.7139 O.3     1  UNL1       -0.3794
     46 H          15.0335   68.3239   -3.6251 H       1  UNL1        0.2105
@<TRIPOS>BOND
     1    29    30    1
     2    30    41    1
     3    30    31    1
     4    31    34    1
     5    31    32    1
     6    32    35    1
     7    32    33    1
     8    33    36    1
     9    33    44    1
    10    39    40    1
    11    39    42    2
    12    39    41   am
    13    41    43    1
    14    29    28    1
    15    34    37    1
    16    35    38    1
    17    29    36    1
    18    44    45    1
    19    45    46    1
    20    15     6    1
    21    15    16   ar
    22    16    21    2
    23    16    17   ar
    24    17    23    1
    25    17    18   ar
    26    18    19   ar
    27    19    20   ar
    28    15    20   ar
    29    18    22    2
    30     6     7    1
    31     6    11    1
    32     7     9    1
    33     7     8    1
    34     8    13    1
    35     9    10    1
    36     9    12    1
    37    10     5    1
    38    10    11    1
    39    12    14    1
    40     5     4    1
    41     4     1    1
    42     1     2    1
    43     1    24    1
    44     1     3    2
    45    24    25    1
    46    28    25    1
    47    25    26    1
    48    25    27    2
@<TRIPOS>MOLECULE
UD2
 46 48 0 0 0
SMALL
GASTEIGER

@<TRIPOS>ATOM
      1 P          22.2690   72.8424   -4.4916 P.3     1  UNL1        0.2189
      2 O          21.3082   74.0184   -5.0256 O.3     1  UNL1       -0.4371
      3 O          23.2418   72.4821   -5.5464 O.2     1  UNL1       -0.5170
      4 O          23.0592   73.3481   -3.1826 O.3     1  UNL1       -0.3112
      5 C          22.4002   73.9046   -2.0436 C.3     1  UNL1        0.1811
      6 C          23.3193   72.1249    0.9438 C.3     1  UNL1        0.2383
      7 C          22.3262   73.2119    1.4277 C.3     1  UNL1        0.1895
      8 O          21.5912   72.7605    2.5668 O.3     1  UNL1       -0.3779
      9 C          21.3973   73.3738    0.1996 C.3     1  UNL1        0.1713
     10 C          22.2270   72.8221   -0.9754 C.3     1  UNL1        0.1764
     11 O          23.5098   72.4421   -0.4522 O.3     1  UNL1       -0.3308
     12 O          20.2037   72.6083    0.3726 O.3     1  UNL1       -0.3794
     13 H          20.9570   73.4059    2.9071 H       1  UNL1        0.2106
     14 H          19.6716   72.8747    1.1344 H       1  UNL1        0.2105
     15 N          24.5859   72.2221    1.6727 N.ar    1  UNL1       -0.2551
     16 C          25.2577   71.1020    1.9937 C.ar    1  UNL1        0.3323
     17 N          26.4239   71.1615    2.6634 N.ar    1  UNL1       -0.2743
     18 C          26.9399   72.3544    3.0231 C.ar    1  UNL1        0.2626
     19 C          26.2439   73.5415    2.6909 C.ar    1  UNL1        0.0795
     20 C          25.0789   73.4524    2.0153 C.ar    1  UNL1        0.0869
     21 O          24.8044   70.0196    1.6756 O.2     1  UNL1       -0.2464
     22 O          27.9956   72.4096    3.6290 O.2     1  UNL1       -0.2670
     23 H          26.8948   70.3442    2.8880 H       1  UNL1        0.1734
     24 O          21.3811   71.5523   -4.1166 O.3     1  UNL1       -0.2703
     25 P          19.8695   71.3471   -3.6009 P.3     1  UNL1        0.2208
     26 O          19.8542   70.2770   -2.3974 O.3     1  UNL1       -0.4371
     27 O          19.3329   72.6385   -3.1188 O.2     1  UNL1       -0.5170
     28 O          18.9581   70.8055   -4.8128 O.3     1  UNL1       -0.2865
     29 C          18.1985   71.6682   -5.6614 C.3     1  UNL1        0.2611
     30 C          16.7811   71.1124   -5.8185 C.3     1  UNL1        0.1582
     31 C          16.8523   69.7397   -6.4946 C.3     1  UNL1        0.1625
     32 C          17.5725   69.8812   -7.8384 C.3     1  UNL1        0.1686
     33 C          18.9598   70.4846   -7.6033 C.3     1  UNL1        0.1760
     34 O          15.5287   69.2456   -6.7119 O.3     1  UNL1       -0.3801
     35 O          16.8177   70.7381   -8.6970 O.3     1  UNL1       -0.3794
     36 O          18.8238   71.7452   -6.9441 O.3     1  UNL1       -0.3263
     37 H          15.4982   68.3776   -7.1371 H       1  UNL1        0.2105
     38 H          17.2165   70.8736   -9.5679 H       1  UNL1        0.2105
     39 C          16.2473   69.8101   -3.8293 C.2     1  UNL1        0.2231
     40 C          15.6090   69.6696   -2.4723 C.3     1  UNL1        0.0946
     41 N          16.1597   70.9764   -4.4987 N.am    1  UNL1       -0.2994
     42 O          16.8409   68.8728   -4.3206 O.2     1  UNL1       -0.2751
     43 H          15.6844   71.7257   -4.1067 H       1  UNL1        0.1496
     44 C          19.6631   70.6847   -8.9471 C.3     1  UNL1        0.1693
     45 O          20.5304   71.8178   -8.8676 O.3     1  UNL1       -0.3794
     46 H          21.0102   72.0047   -9.6861 H       1  UNL1        0.2105
@<TRIPOS>BOND
     1    29    30    1
     2    30    41    1
     3    30    31    1
     4    31    34    1
     5    31    32    1
     6    32    35    1
     7    32    33    1
     8    33    36    1
     9    33    44    1
    10    39    40    1
    11    39    42    2
    12    39    41   am
    13    41    43    1
    14    29    28    1
    15    34    37    1
    16    35    38    1
    17    29    36    1
    18    44    45    1
    19    45    46    1
    20    15     6    1
    21    15    16   ar
    22    16    21    2
    23    16    17   ar
    24    17    23    1
    25    17    18   ar
    26    18    19   ar
    27    19    20   ar
    28    15    20   ar
    29    18    22    2
    30     6     7    1
    31     6    11    1
    32     7     9    1
    33     7     8    1
    34     8    13    1
    35     9    10    1
    36     9    12    1
    37    10     5    1
    38    10    11    1
    39    12    14    1
    40     5     4    1
    41     4     1    1
    42     1     2    1
    43     1    24    1
    44     1     3    2
    45    24    25    1
    46    28    25    1
    47    25    26    1
    48    25    27    2
@<TRIPOS>MOLECULE
UD2
 46 48 0 0 0
SMALL
GASTEIGER

@<TRIPOS>ATOM
      1 P          21.1855   72.5076   -2.4995 P.3     1  UNL1        0.2189
      2 O          21.9558   71.4918   -3.4824 O.3     1  UNL1       -0.4371
      3 O          21.3426   73.8917   -2.9978 O.2     1  UNL1       -0.5170
      4 O          19.6211   72.1277   -2.4544 O.3     1  UNL1       -0.3112
      5 C          18.5965   72.9938   -2.9459 C.3     1  UNL1        0.1811
      6 C          17.2437   71.0128   -5.6258 C.3     1  UNL1        0.2383
      7 C          17.8725   69.9797   -4.6566 C.3     1  UNL1        0.1895
      8 O          17.1611   68.7412   -4.6995 O.3     1  UNL1       -0.3779
      9 C          17.6942   70.6718   -3.2831 C.3     1  UNL1        0.1713
     10 C          17.5113   72.1610   -3.6327 C.3     1  UNL1        0.1764
     11 O          17.6308   72.2834   -5.0590 O.3     1  UNL1       -0.3308
     12 O          16.5351   70.1679   -2.6172 O.3     1  UNL1       -0.3794
     13 H          17.5171   68.0623   -4.1105 H       1  UNL1        0.2106
     14 H          16.5712   69.2211   -2.4254 H       1  UNL1        0.2105
     15 N          17.7963   70.8588   -6.9734 N.ar    1  UNL1       -0.2551
     16 C          16.9878   70.5068   -7.9889 C.ar    1  UNL1        0.3323
     17 N          17.4686   70.3578   -9.2375 N.ar    1  UNL1       -0.2743
     18 C          18.7774   70.5629   -9.4898 C.ar    1  UNL1        0.2626
     19 C          19.6396   70.9348   -8.4304 C.ar    1  UNL1        0.0795
     20 C          19.1297   71.0811   -7.1894 C.ar    1  UNL1        0.0869
     21 O          15.8056   70.3188   -7.7761 O.2     1  UNL1       -0.2464
     22 O          19.2137   70.4288  -10.6195 O.2     1  UNL1       -0.2670
     23 H          16.8721   70.1024   -9.9580 H       1  UNL1        0.1734
     24 O          21.8070   72.3963   -1.0180 O.3     1  UNL1       -0.2703
     25 P          21.1966   72.0262    0.4254 P.3     1  UNL1        0.2208
     26 O          19.7607   72.7348    0.5980 O.3     1  UNL1       -0.4371
     27 O          21.0382   70.5594    0.5330 O.2     1  UNL1       -0.5170
     28 O          22.1935   72.5449    1.5785 O.3     1  UNL1       -0.2865
     29 C          22.3249   73.9229    1.9321 C.3     1  UNL1        0.2611
     30 C          23.7543   74.3899    1.6470 C.3     1  UNL1        0.1582
     31 C          24.7270   73.5910    2.5200 C.3     1  UNL1        0.1625
     32 C          24.3406   73.7694    3.9908 C.3     1  UNL1        0.1686
     33 C          22.8881   73.3262    4.1856 C.3     1  UNL1        0.1760
     34 O          26.0575   74.0710    2.3141 O.3     1  UNL1       -0.3801
     35 O          24.4741   75.1441    4.3563 O.3     1  UNL1       -0.3794
     36 O          22.0399   74.0866    3.3229 O.3     1  UNL1       -0.3263
     37 H          26.7273   73.6084    2.8362 H       1  UNL1        0.2105
     38 H          24.2443   75.3310    5.2773 H       1  UNL1        0.2105
     39 C          24.2577   75.2183   -0.5887 C.2     1  UNL1        0.2231
     40 C          24.5814   74.9903   -2.0419 C.3     1  UNL1        0.0946
     41 N          24.0690   74.1673    0.2335 N.am    1  UNL1       -0.2994
     42 O          24.1665   76.3488   -0.1574 O.2     1  UNL1       -0.2751
     43 H          24.1408   73.2634   -0.1111 H       1  UNL1        0.1496
     44 C          22.4754   73.5573    5.6405 C.3     1  UNL1        0.1693
     45 O          21.0503   73.6172    5.7284 O.3     1  UNL1       -0.3794
     46 H          20.7167   73.7622    6.6243 H       1  UNL1        0.2105
@<TRIPOS>BOND
     1    29    30    1
     2    30    41    1
     3    30    31    1
     4    31    34    1
     5    31    32    1
     6    32    35    1
     7    32    33    1
     8    33    36    1
     9    33    44    1
    10    39    40    1
    11    39    42    2
    12    39    41   am
    13    41    43    1
    14    29    28    1
    15    34    37    1
    16    35    38    1
    17    29    36    1
    18    44    45    1
    19    45    46    1
    20    15     6    1
    21    15    16   ar
    22    16    21    2
    23    16    17   ar
    24    17    23    1
    25    17    18   ar
    26    18    19   ar
    27    19    20   ar
    28    15    20   ar
    29    18    22    2
    30     6     7    1
    31     6    11    1
    32     7     9    1
    33     7     8    1
    34     8    13    1
    35     9    10    1
    36     9    12    1
    37    10     5    1
    38    10    11    1
    39    12    14    1
    40     5     4    1
    41     4     1    1
    42     1     2    1
    43     1    24    1
    44     1     3    2
    45    24    25    1
    46    28    25    1
    47    25    26    1
    48    25    27    2
@<TRIPOS>MOLECULE
UD2
 46 48 0 0 0
SMALL
GASTEIGER

@<TRIPOS>ATOM
      1 P          22.9369   72.1318   -3.8156 P.3     1  UNL1        0.2189
      2 O          24.2067   72.9737   -4.3357 O.3     1  UNL1       -0.4371
      3 O          23.4006   70.8714   -3.1949 O.2     1  UNL1       -0.5170
      4 O          22.1270   72.9998   -2.7273 O.3     1  UNL1       -0.3112
      5 C          21.6964   72.4676   -1.4733 C.3     1  UNL1        0.1811
      6 C          23.0561   72.9319    1.8240 C.3     1  UNL1        0.2383
      7 C          22.9160   71.3958    1.6730 C.3     1  UNL1        0.1895
      8 O          23.9232   70.7155    2.4243 O.3     1  UNL1       -0.3779
      9 C          23.1323   71.1974    0.1527 C.3     1  UNL1        0.1713
     10 C          22.8327   72.5814   -0.4540 C.3     1  UNL1        0.1764
     11 O          22.4376   73.4447    0.6240 O.3     1  UNL1       -0.3308
     12 O          24.4830   70.8159   -0.1134 O.3     1  UNL1       -0.3794
     13 H          23.8770   69.7518    2.3621 H       1  UNL1        0.2106
     14 H          24.7440   69.9794    0.2949 H       1  UNL1        0.2105
     15 N          22.3418   73.4005    3.0137 N.ar    1  UNL1       -0.2551
     16 C          21.0601   73.0413    3.2060 C.ar    1  UNL1        0.3323
     17 N          20.3792   73.4574    4.2902 N.ar    1  UNL1       -0.2743
     18 C          20.9779   74.2449    5.2067 C.ar    1  UNL1        0.2626
     19 C          22.3270   74.6298    5.0174 C.ar    1  UNL1        0.0795
     20 C          22.9867   74.1945    3.9234 C.ar    1  UNL1        0.0869
     21 O          20.5076   72.3314    2.3880 O.2     1  UNL1       -0.2464
     22 O          20.3629   74.6219    6.1886 O.2     1  UNL1       -0.2670
     23 H          19.4552   73.1901    4.4128 H       1  UNL1        0.1734
     24 O          21.9706   71.7945   -5.0588 O.3     1  UNL1       -0.2703
     25 P          21.0567   72.6875   -6.0388 P.3     1  UNL1        0.2208
     26 O          21.2364   74.2445   -5.6685 O.3     1  UNL1       -0.4371
     27 O          21.4716   72.4635   -7.4409 O.2     1  UNL1       -0.5170
     28 O          19.5121   72.2682   -5.8621 O.3     1  UNL1       -0.2865
     29 C          19.1007   71.0806   -5.1827 C.3     1  UNL1        0.2611
     30 C          18.0238   70.3684   -6.0048 C.3     1  UNL1        0.1582
     31 C          16.8001   71.2816   -6.1276 C.3     1  UNL1        0.1625
     32 C          16.3098   71.6516   -4.7251 C.3     1  UNL1        0.1686
     33 C          17.4531   72.3145   -3.9521 C.3     1  UNL1        0.1760
     34 O          15.7618   70.5961   -6.8312 O.3     1  UNL1       -0.3801
     35 O          15.8903   70.4707   -4.0388 O.3     1  UNL1       -0.3794
     36 O          18.5702   71.4249   -3.9012 O.3     1  UNL1       -0.3263
     37 H          14.9551   71.1169   -6.9464 H       1  UNL1        0.2105
     38 H          15.5671   70.6305   -3.1410 H       1  UNL1        0.2105
     39 C          18.3275   70.9235   -8.3580 C.2     1  UNL1        0.2231
     40 C          18.8646   70.6154   -9.7310 C.3     1  UNL1        0.0946
     41 N          18.5465   70.0679   -7.3401 N.am    1  UNL1       -0.2994
     42 O          17.6970   71.9425   -8.1677 O.2     1  UNL1       -0.2751
     43 H          19.0497   69.2525   -7.4920 H       1  UNL1        0.1496
     44 C          16.9892   72.6332   -2.5296 C.3     1  UNL1        0.1693
     45 O          17.9436   72.1299   -1.5925 O.3     1  UNL1       -0.3794
     46 H          17.7136   72.2965   -0.6682 H       1  UNL1        0.2105
@<TRIPOS>BOND
     1    29    30    1
     2    30    41    1
     3    30    31    1
     4    31    34    1
     5    31    32    1
     6    32    35    1
     7    32    33    1
     8    33    36    1
     9    33    44    1
    10    39    40    1
    11    39    42    2
    12    39    41   am
    13    41    43    1
    14    29    28    1
    15    34    37    1
    16    35    38    1
    17    29    36    1
    18    44    45    1
    19    45    46    1
    20    15     6    1
    21    15    16   ar
    22    16    21    2
    23    16    17   ar
    24    17    23    1
    25    17    18   ar
    26    18    19   ar
    27    19    20   ar
    28    15    20   ar
    29    18    22    2
    30     6     7    1
    31     6    11    1
    32     7     9    1
    33     7     8    1
    34     8    13    1
    35     9    10    1
    36     9    12    1
    37    10     5    1
    38    10    11    1
    39    12    14    1
    40     5     4    1
    41     4     1    1
    42     1     2    1
    43     1    24    1
    44     1     3    2
    45    24    25    1
    46    28    25    1
    47    25    26    1
    48    25    27    2
@<TRIPOS>MOLECULE
UD2
 46 48 0 0 0
SMALL
GASTEIGER

@<TRIPOS>ATOM
      1 P          16.1327   70.8962   -2.5183 P.3     1  UNL1        0.2189
      2 O          15.4654   72.3079   -2.1268 O.3     1  UNL1       -0.4371
      3 O          17.4763   70.7985   -1.9067 O.2     1  UNL1       -0.5170
      4 O          15.2068   69.6959   -1.9745 O.3     1  UNL1       -0.3112
      5 C          14.3657   69.8222   -0.8264 C.3     1  UNL1        0.1811
      6 C          12.7003   67.2898    1.1101 C.3     1  UNL1        0.2383
      7 C          11.5912   68.3212    0.7812 C.3     1  UNL1        0.1895
      8 O          10.3170   67.6834    0.6746 O.3     1  UNL1       -0.3779
      9 C          12.0520   68.8675   -0.5924 C.3     1  UNL1        0.1713
     10 C          13.5557   68.5363   -0.6441 C.3     1  UNL1        0.1764
     11 O          13.9001   67.9146    0.6043 O.3     1  UNL1       -0.3308
     12 O          11.3570   68.2063   -1.6509 O.3     1  UNL1       -0.3794
     13 H           9.5903   68.2875    0.4704 H       1  UNL1        0.2106
     14 H          10.3988   68.3323   -1.6324 H       1  UNL1        0.2105
     15 N          12.7975   67.0805    2.5564 N.ar    1  UNL1       -0.2551
     16 C          12.7506   68.1370    3.3873 C.ar    1  UNL1        0.3323
     17 N          12.8378   67.9741    4.7207 N.ar    1  UNL1       -0.2743
     18 C          12.9726   66.7395    5.2463 C.ar    1  UNL1        0.2626
     19 C          13.0224   65.6183    4.3834 C.ar    1  UNL1        0.0795
     20 C          12.9284   65.8106    3.0508 C.ar    1  UNL1        0.0869
     21 O          12.6290   69.2559    2.9274 O.2     1  UNL1       -0.2464
     22 O          13.0512   66.5906    6.4530 O.2     1  UNL1       -0.2670
     23 H          12.8034   68.7467    5.3055 H       1  UNL1        0.1734
     24 O          16.2626   70.7894   -4.1199 O.3     1  UNL1       -0.2703
     25 P          17.0652   69.8088   -5.1134 P.3     1  UNL1        0.2208
     26 O          17.2919   68.3856   -4.3945 O.3     1  UNL1       -0.4371
     27 O          16.2830   69.6150   -6.3540 O.2     1  UNL1       -0.5170
     28 O          18.4922   70.4615   -5.4746 O.3     1  UNL1       -0.2865
     29 C          18.7342   71.8692   -5.4448 C.3     1  UNL1        0.2611
     30 C          19.6352   72.2580   -6.6194 C.3     1  UNL1        0.1582
     31 C          20.9858   71.5507   -6.4716 C.3     1  UNL1        0.1625
     32 C          21.6005   71.9245   -5.1200 C.3     1  UNL1        0.1686
     33 C          20.6235   71.5485   -4.0029 C.3     1  UNL1        0.1760
     34 O          21.8593   71.9650   -7.5245 O.3     1  UNL1       -0.3801
     35 O          21.8519   73.3305   -5.0821 O.3     1  UNL1       -0.3794
     36 O          19.3780   72.2156   -4.2169 O.3     1  UNL1       -0.3263
     37 H          22.7345   71.5547   -7.4933 H       1  UNL1        0.2105
     38 H          22.2418   73.6388   -4.2521 H       1  UNL1        0.2105
     39 C          19.3150   70.6622   -8.4329 C.2     1  UNL1        0.2231
     40 C          18.6660   70.2414   -9.7253 C.3     1  UNL1        0.0946
     41 N          19.0036   71.8495   -7.8767 N.am    1  UNL1       -0.2994
     42 O          20.1190   69.9321   -7.8918 O.2     1  UNL1       -0.2751
     43 H          18.3616   72.4340   -8.3095 H       1  UNL1        0.1496
     44 C          21.2046   71.9733   -2.6530 C.3     1  UNL1        0.1693
     45 O          21.9240   70.8804   -2.0781 O.3     1  UNL1       -0.3794
     46 H          22.3206   71.0785   -1.2188 H       1  UNL1        0.2105
@<TRIPOS>BOND
     1    29    30    1
     2    30    41    1
     3    30    31    1
     4    31    34    1
     5    31    32    1
     6    32    35    1
     7    32    33    1
     8    33    36    1
     9    33    44    1
    10    39    40    1
    11    39    42    2
    12    39    41   am
    13    41    43    1
    14    29    28    1
    15    34    37    1
    16    35    38    1
    17    29    36    1
    18    44    45    1
    19    45    46    1
    20    15     6    1
    21    15    16   ar
    22    16    21    2
    23    16    17   ar
    24    17    23    1
    25    17    18   ar
    26    18    19   ar
    27    19    20   ar
    28    15    20   ar
    29    18    22    2
    30     6     7    1
    31     6    11    1
    32     7     9    1
    33     7     8    1
    34     8    13    1
    35     9    10    1
    36     9    12    1
    37    10     5    1
    38    10    11    1
    39    12    14    1
    40     5     4    1
    41     4     1    1
    42     1     2    1
    43     1    24    1
    44     1     3    2
    45    24    25    1
    46    28    25    1
    47    25    26    1
    48    25    27    2
@<TRIPOS>MOLECULE
UD2
 46 48 0 0 0
SMALL
GASTEIGER

@<TRIPOS>ATOM
      1 P          21.7971   72.4499   -5.9075 P.3     1  UNL1        0.2189
      2 O          23.0566   73.2536   -6.5068 O.3     1  UNL1       -0.4371
      3 O          20.6504   73.3721   -5.7541 O.2     1  UNL1       -0.5170
      4 O          21.3954   71.2563   -6.9113 O.3     1  UNL1       -0.3112
      5 C          20.6284   71.4643   -8.0986 C.3     1  UNL1        0.1811
      6 C          17.5222   70.1076   -6.8956 C.3     1  UNL1        0.2383
      7 C          17.1052   71.1363   -7.9773 C.3     1  UNL1        0.1895
      8 O          15.8936   70.7368   -8.6210 O.3     1  UNL1       -0.3779
      9 C          18.2993   71.0759   -8.9611 C.3     1  UNL1        0.1713
     10 C          19.4495   70.4882   -8.1214 C.3     1  UNL1        0.1764
     11 O          18.9503   70.2936   -6.7886 O.3     1  UNL1       -0.3308
     12 O          17.9951   70.2190  -10.0628 O.3     1  UNL1       -0.3794
     13 H          15.5914   71.3488   -9.3056 H       1  UNL1        0.2106
     14 H          17.2403   70.5102  -10.5920 H       1  UNL1        0.2105
     15 N          16.8658   70.4052   -5.6205 N.ar    1  UNL1       -0.2551
     16 C          16.4496   69.3967   -4.8340 C.ar    1  UNL1        0.3323
     17 N          15.8433   69.6409   -3.6571 N.ar    1  UNL1       -0.2743
     18 C          15.6449   70.9099   -3.2463 C.ar    1  UNL1        0.2626
     19 C          16.0790   71.9811   -4.0637 C.ar    1  UNL1        0.0795
     20 C          16.6877   71.7071   -5.2367 C.ar    1  UNL1        0.0869
     21 O          16.6220   68.2475   -5.1917 O.2     1  UNL1       -0.2464
     22 O          15.0967   71.1323   -2.1811 O.2     1  UNL1       -0.2670
     23 H          15.5483   68.9021   -3.1028 H       1  UNL1        0.1734
     24 O          22.1870   71.8342   -4.4715 O.3     1  UNL1       -0.2703
     25 P          23.4058   72.0729   -3.4465 P.3     1  UNL1        0.2208
     26 O          24.1682   70.6784   -3.1860 O.3     1  UNL1       -0.4371
     27 O          24.3525   73.0515   -4.0247 O.2     1  UNL1       -0.5170
     28 O          22.8317   72.6397   -2.0530 O.3     1  UNL1       -0.2865
     29 C          23.2069   72.1060   -0.7819 C.3     1  UNL1        0.2611
     30 C          21.9508   71.8346    0.0495 C.3     1  UNL1        0.1582
     31 C          21.2180   73.1566    0.2981 C.3     1  UNL1        0.1625
     32 C          22.1719   74.1344    0.9898 C.3     1  UNL1        0.1686
     33 C          23.4197   74.3172    0.1218 C.3     1  UNL1        0.1760
     34 O          20.0834   72.9231    1.1356 O.3     1  UNL1       -0.3801
     35 O          22.5489   73.6124    2.2652 O.3     1  UNL1       -0.3794
     36 O          24.0363   73.0468   -0.0968 O.3     1  UNL1       -0.3263
     37 H          19.5710   73.7189    1.3339 H       1  UNL1        0.2105
     38 H          23.1548   74.1814    2.7603 H       1  UNL1        0.2105
     39 C          20.1007   71.4035   -1.4766 C.2     1  UNL1        0.2231
     40 C          19.1962   70.4603   -2.2254 C.3     1  UNL1        0.0946
     41 N          21.0712   70.9165   -0.6783 N.am    1  UNL1       -0.2994
     42 O          19.9560   72.6026   -1.5918 O.2     1  UNL1       -0.2751
     43 H          21.1866   69.9578   -0.5852 H       1  UNL1        0.1496
     44 C          24.4044   75.2466    0.8340 C.3     1  UNL1        0.1693
     45 O          25.1191   74.5117    1.8297 O.3     1  UNL1       -0.3794
     46 H          25.7626   75.0391    2.3224 H       1  UNL1        0.2105
@<TRIPOS>BOND
     1    29    30    1
     2    30    41    1
     3    30    31    1
     4    31    34    1
     5    31    32    1
     6    32    35    1
     7    32    33    1
     8    33    36    1
     9    33    44    1
    10    39    40    1
    11    39    42    2
    12    39    41   am
    13    41    43    1
    14    29    28    1
    15    34    37    1
    16    35    38    1
    17    29    36    1
    18    44    45    1
    19    45    46    1
    20    15     6    1
    21    15    16   ar
    22    16    21    2
    23    16    17   ar
    24    17    23    1
    25    17    18   ar
    26    18    19   ar
    27    19    20   ar
    28    15    20   ar
    29    18    22    2
    30     6     7    1
    31     6    11    1
    32     7     9    1
    33     7     8    1
    34     8    13    1
    35     9    10    1
    36     9    12    1
    37    10     5    1
    38    10    11    1
    39    12    14    1
    40     5     4    1
    41     4     1    1
    42     1     2    1
    43     1    24    1
    44     1     3    2
    45    24    25    1
    46    28    25    1
    47    25    26    1
    48    25    27    2
@<TRIPOS>MOLECULE
UD2
 46 48 0 0 0
SMALL
GASTEIGER

@<TRIPOS>ATOM
      1 P          22.8606   72.4240   -1.1423 P.3     1  UNL1        0.2189
      2 O          23.7393   73.4862   -1.9736 O.3     1  UNL1       -0.4371
      3 O          21.6170   73.0726   -0.6717 O.2     1  UNL1       -0.5170
      4 O          22.4897   71.1760   -2.0902 O.3     1  UNL1       -0.3112
      5 C          21.2687   71.0965   -2.8281 C.3     1  UNL1        0.1811
      6 C          20.4214   70.9553   -6.3208 C.3     1  UNL1        0.2383
      7 C          20.8049   72.4363   -6.0724 C.3     1  UNL1        0.1895
      8 O          21.3761   73.0189   -7.2454 O.3     1  UNL1       -0.3779
      9 C          21.8604   72.3145   -4.9461 C.3     1  UNL1        0.1713
     10 C          21.5829   70.9355   -4.3175 C.3     1  UNL1        0.1764
     11 O          20.4488   70.3754   -4.9984 O.3     1  UNL1       -0.3308
     12 O          23.1798   72.3594   -5.4919 O.3     1  UNL1       -0.3794
     13 H          21.6319   73.9452   -7.1402 H       1  UNL1        0.2106
     14 H          23.3882   73.1838   -5.9516 H       1  UNL1        0.2105
     15 N          19.0789   70.8601   -6.8985 N.ar    1  UNL1       -0.2551
     16 C          18.9079   70.2647   -8.0923 C.ar    1  UNL1        0.3323
     17 N          17.6856   70.1633   -8.6472 N.ar    1  UNL1       -0.2743
     18 C          16.6068   70.6593   -8.0079 C.ar    1  UNL1        0.2626
     19 C          16.7721   71.2877   -6.7502 C.ar    1  UNL1        0.0795
     20 C          18.0085   71.3716   -6.2155 C.ar    1  UNL1        0.0869
     21 O          19.8717   69.8127   -8.6799 O.2     1  UNL1       -0.2464
     22 O          15.4999   70.5678   -8.5088 O.2     1  UNL1       -0.2670
     23 H          17.5802   69.7320   -9.5092 H       1  UNL1        0.1734
     24 O          23.7066   71.9019    0.1245 O.3     1  UNL1       -0.2703
     25 P          23.3485   71.0121    1.4179 P.3     1  UNL1        0.2208
     26 O          21.9565   70.2411    1.1696 O.3     1  UNL1       -0.4371
     27 O          24.4244   70.0237    1.6504 O.2     1  UNL1       -0.5170
     28 O          23.2104   71.9686    2.7058 O.3     1  UNL1       -0.2865
     29 C          23.1851   73.3944    2.6174 C.3     1  UNL1        0.2611
     30 C          23.8224   73.9958    3.8724 C.3     1  UNL1        0.1582
     31 C          22.9970   73.5910    5.0977 C.3     1  UNL1        0.1625
     32 C          21.5511   74.0548    4.9018 C.3     1  UNL1        0.1686
     33 C          21.0012   73.4509    3.6068 C.3     1  UNL1        0.1760
     34 O          23.5426   74.2085    6.2657 O.3     1  UNL1       -0.3801
     35 O          21.5140   75.4806    4.8179 O.3     1  UNL1       -0.3794
     36 O          21.8316   73.8407    2.5112 O.3     1  UNL1       -0.3263
     37 H          23.0685   73.9947    7.0810 H       1  UNL1        0.2105
     38 H          20.6266   75.8450    4.6924 H       1  UNL1        0.2105
     39 C          26.2224   74.1867    3.4964 C.2     1  UNL1        0.2231
     40 C          27.6294   73.6698    3.6434 C.3     1  UNL1        0.0946
     41 N          25.1907   73.4922    4.0156 N.am    1  UNL1       -0.2994
     42 O          26.0170   75.2289    2.9101 O.2     1  UNL1       -0.2751
     43 H          25.3544   72.6583    4.4835 H       1  UNL1        0.1496
     44 C          19.5767   73.9574    3.3729 C.3     1  UNL1        0.1693
     45 O          18.7736   73.6691    4.5193 O.3     1  UNL1       -0.3794
     46 H          17.8556   73.9629    4.4411 H       1  UNL1        0.2105
@<TRIPOS>BOND
     1    29    30    1
     2    30    41    1
     3    30    31    1
     4    31    34    1
     5    31    32    1
     6    32    35    1
     7    32    33    1
     8    33    36    1
     9    33    44    1
    10    39    40    1
    11    39    42    2
    12    39    41   am
    13    41    43    1
    14    29    28    1
    15    34    37    1
    16    35    38    1
    17    29    36    1
    18    44    45    1
    19    45    46    1
    20    15     6    1
    21    15    16   ar
    22    16    21    2
    23    16    17   ar
    24    17    23    1
    25    17    18   ar
    26    18    19   ar
    27    19    20   ar
    28    15    20   ar
    29    18    22    2
    30     6     7    1
    31     6    11    1
    32     7     9    1
    33     7     8    1
    34     8    13    1
    35     9    10    1
    36     9    12    1
    37    10     5    1
    38    10    11    1
    39    12    14    1
    40     5     4    1
    41     4     1    1
    42     1     2    1
    43     1    24    1
    44     1     3    2
    45    24    25    1
    46    28    25    1
    47    25    26    1
    48    25    27    2
@<TRIPOS>MOLECULE
UD2
 46 48 0 0 0
SMALL
GASTEIGER

@<TRIPOS>ATOM
      1 P          22.9564   71.7759   -3.3513 P.3     1  UNL1        0.2189
      2 O          23.4876   72.7993   -4.4745 O.3     1  UNL1       -0.4371
      3 O          23.9910   70.7518   -3.0872 O.2     1  UNL1       -0.5170
      4 O          22.6426   72.5843   -1.9942 O.3     1  UNL1       -0.3112
      5 C          23.5842   72.7056   -0.9265 C.3     1  UNL1        0.1811
      6 C          22.9005   72.0834    2.5495 C.3     1  UNL1        0.2383
      7 C          21.5497   72.5724    1.9681 C.3     1  UNL1        0.1895
      8 O          20.4508   71.9777    2.6613 O.3     1  UNL1       -0.3779
      9 C          21.6213   72.0644    0.5072 C.3     1  UNL1        0.1713
     10 C          23.1261   71.8493    0.2567 C.3     1  UNL1        0.1764
     11 O          23.8200   72.2512    1.4486 O.3     1  UNL1       -0.3308
     12 O          20.9102   70.8329    0.3718 O.3     1  UNL1       -0.3794
     13 H          19.5837   72.2530    2.3343 H       1  UNL1        0.2106
     14 H          19.9675   70.8977    0.5756 H       1  UNL1        0.2105
     15 N          23.3021   72.9119    3.6885 N.ar    1  UNL1       -0.2551
     16 C          24.3489   73.7477    3.5683 C.ar    1  UNL1        0.3323
     17 N          24.7401   74.5207    4.5987 N.ar    1  UNL1       -0.2743
     18 C          24.0816   74.4688    5.7744 C.ar    1  UNL1        0.2626
     19 C          22.9773   73.5942    5.9145 C.ar    1  UNL1        0.0795
     20 C          22.6044   72.8338    4.8637 C.ar    1  UNL1        0.0869
     21 O          24.9518   73.8051    2.5140 O.2     1  UNL1       -0.2464
     22 O          24.4344   75.1681    6.7076 O.2     1  UNL1       -0.2670
     23 H          25.4977   75.1169    4.4954 H       1  UNL1        0.1734
     24 O          21.6114   71.0589   -3.8712 O.3     1  UNL1       -0.2703
     25 P          20.0406   71.3257   -3.6380 P.3     1  UNL1        0.2208
     26 O          19.5534   70.5402   -2.3191 O.3     1  UNL1       -0.4371
     27 O          19.8070   72.7758   -3.4623 O.2     1  UNL1       -0.5170
     28 O          19.2117   70.7988   -4.9138 O.3     1  UNL1       -0.2865
     29 C          18.3471   71.6384   -5.6813 C.3     1  UNL1        0.2611
     30 C          16.9375   71.0421   -5.6973 C.3     1  UNL1        0.1582
     31 C          16.9801   69.6712   -6.3792 C.3     1  UNL1        0.1625
     32 C          17.5586   69.8313   -7.7878 C.3     1  UNL1        0.1686
     33 C          18.9446   70.4743   -7.6911 C.3     1  UNL1        0.1760
     34 O          15.6560   69.1392   -6.4643 O.3     1  UNL1       -0.3801
     35 O          16.6979   70.6652   -8.5657 O.3     1  UNL1       -0.3794
     36 O          18.8390   71.7314   -7.0198 O.3     1  UNL1       -0.3263
     37 H          15.6081   68.2701   -6.8857 H       1  UNL1        0.2105
     38 H          17.0040   70.8108   -9.4718 H       1  UNL1        0.2105
     39 C          16.5971   69.7119   -3.6842 C.2     1  UNL1        0.2231
     40 C          16.1013   69.5550   -2.2707 C.3     1  UNL1        0.0946
     41 N          16.4548   70.8903   -4.3223 N.am    1  UNL1       -0.2994
     42 O          17.1249   68.7769   -4.2494 O.2     1  UNL1       -0.2751
     43 H          16.0319   71.6378   -3.8712 H       1  UNL1        0.1496
     44 C          19.5046   70.6926   -9.0980 C.3     1  UNL1        0.1693
     45 O          18.5260   71.3523   -9.9039 O.3     1  UNL1       -0.3794
     46 H          18.8133   71.5233  -10.8112 H       1  UNL1        0.2105
@<TRIPOS>BOND
     1    29    30    1
     2    30    41    1
     3    30    31    1
     4    31    34    1
     5    31    32    1
     6    32    35    1
     7    32    33    1
     8    33    36    1
     9    33    44    1
    10    39    40    1
    11    39    42    2
    12    39    41   am
    13    41    43    1
    14    29    28    1
    15    34    37    1
    16    35    38    1
    17    29    36    1
    18    44    45    1
    19    45    46    1
    20    15     6    1
    21    15    16   ar
    22    16    21    2
    23    16    17   ar
    24    17    23    1
    25    17    18   ar
    26    18    19   ar
    27    19    20   ar
    28    15    20   ar
    29    18    22    2
    30     6     7    1
    31     6    11    1
    32     7     9    1
    33     7     8    1
    34     8    13    1
    35     9    10    1
    36     9    12    1
    37    10     5    1
    38    10    11    1
    39    12    14    1
    40     5     4    1
    41     4     1    1
    42     1     2    1
    43     1    24    1
    44     1     3    2
    45    24    25    1
    46    28    25    1
    47    25    26    1
    48    25    27    2
@<TRIPOS>MOLECULE
UD2
 46 48 0 0 0
SMALL
GASTEIGER

@<TRIPOS>ATOM
      1 P          22.9552   72.5999   -1.3664 P.3     1  UNL1        0.2189
      2 O          23.4380   71.3219   -2.2178 O.3     1  UNL1       -0.4371
      3 O          23.7668   73.7786   -1.7415 O.2     1  UNL1       -0.5170
      4 O          21.4029   72.8962   -1.6771 O.3     1  UNL1       -0.3112
      5 C          20.8771   72.9750   -3.0032 C.3     1  UNL1        0.1811
      6 C          18.4341   70.9372   -4.6813 C.3     1  UNL1        0.2383
      7 C          19.4048   69.9219   -4.0263 C.3     1  UNL1        0.1895
      8 O          18.7215   68.7177   -3.6732 O.3     1  UNL1       -0.3779
      9 C          19.8688   70.6850   -2.7614 C.3     1  UNL1        0.1713
     10 C          19.5821   72.1632   -3.0871 C.3     1  UNL1        0.1764
     11 O          19.0597   72.2132   -4.4243 O.3     1  UNL1       -0.3308
     12 O          19.1142   70.2679   -1.6224 O.3     1  UNL1       -0.3794
     13 H          19.2868   68.0509   -3.2604 H       1  UNL1        0.2106
     14 H          19.2111   69.3304   -1.4072 H       1  UNL1        0.2105
     15 N          18.3287   70.6946   -6.1218 N.ar    1  UNL1       -0.2551
     16 C          19.4440   70.6376   -6.8713 C.ar    1  UNL1        0.3323
     17 N          19.3769   70.4162   -8.1974 N.ar    1  UNL1       -0.2743
     18 C          18.1813   70.2454   -8.7974 C.ar    1  UNL1        0.2626
     19 C          16.9993   70.3019   -8.0204 C.ar    1  UNL1        0.0795
     20 C          17.0964   70.5211   -6.6922 C.ar    1  UNL1        0.0869
     21 O          20.5288   70.7896   -6.3437 O.2     1  UNL1       -0.2464
     22 O          18.1192   70.0445   -9.9975 O.2     1  UNL1       -0.2670
     23 H          20.1907   70.3793   -8.7232 H       1  UNL1        0.1734
     24 O          23.1393   72.2990    0.2049 O.3     1  UNL1       -0.2703
     25 P          22.3284   71.4106    1.2755 P.3     1  UNL1        0.2208
     26 O          21.3288   70.4150    0.4986 O.3     1  UNL1       -0.4371
     27 O          23.2820   70.6194    2.0837 O.2     1  UNL1       -0.5170
     28 O          21.4788   72.3783    2.2420 O.3     1  UNL1       -0.2865
     29 C          21.6948   73.7886    2.3167 C.3     1  UNL1        0.2611
     30 C          22.6945   74.0943    3.4346 C.3     1  UNL1        0.1582
     31 C          22.1035   73.6428    4.7738 C.3     1  UNL1        0.1625
     32 C          20.7596   74.3444    4.9889 C.3     1  UNL1        0.1686
     33 C          19.8343   74.0289    3.8107 C.3     1  UNL1        0.1760
     34 O          22.9989   73.9909    5.8322 O.3     1  UNL1       -0.3801
     35 O          20.9654   75.7558    5.0708 O.3     1  UNL1       -0.3794
     36 O          20.4564   74.4458    2.5937 O.3     1  UNL1       -0.3263
     37 H          22.6876   73.7334    6.7108 H       1  UNL1        0.2105
     38 H          20.1541   76.2651    5.2064 H       1  UNL1        0.2105
     39 C          25.1283   73.9823    3.3956 C.2     1  UNL1        0.2231
     40 C          26.4144   73.2418    3.1378 C.3     1  UNL1        0.0946
     41 N          23.9450   73.3734    3.1834 N.am    1  UNL1       -0.2994
     42 O          25.1572   75.1278    3.7945 O.2     1  UNL1       -0.2751
     43 H          23.9214   72.4579    2.8635 H       1  UNL1        0.1496
     44 C          18.5103   74.7745    3.9886 C.3     1  UNL1        0.1693
     45 O          18.2196   74.9048    5.3817 O.3     1  UNL1       -0.3794
     46 H          17.3922   75.3687    5.5697 H       1  UNL1        0.2105
@<TRIPOS>BOND
     1    29    30    1
     2    30    41    1
     3    30    31    1
     4    31    34    1
     5    31    32    1
     6    32    35    1
     7    32    33    1
     8    33    36    1
     9    33    44    1
    10    39    40    1
    11    39    42    2
    12    39    41   am
    13    41    43    1
    14    29    28    1
    15    34    37    1
    16    35    38    1
    17    29    36    1
    18    44    45    1
    19    45    46    1
    20    15     6    1
    21    15    16   ar
    22    16    21    2
    23    16    17   ar
    24    17    23    1
    25    17    18   ar
    26    18    19   ar
    27    19    20   ar
    28    15    20   ar
    29    18    22    2
    30     6     7    1
    31     6    11    1
    32     7     9    1
    33     7     8    1
    34     8    13    1
    35     9    10    1
    36     9    12    1
    37    10     5    1
    38    10    11    1
    39    12    14    1
    40     5     4    1
    41     4     1    1
    42     1     2    1
    43     1    24    1
    44     1     3    2
    45    24    25    1
    46    28    25    1
    47    25    26    1
    48    25    27    2
@<TRIPOS>MOLECULE
UD2
 46 48 0 0 0
SMALL
GASTEIGER

@<TRIPOS>ATOM
      1 P          22.9630   71.5926   -2.5757 P.3     1  UNL1        0.2189
      2 O          23.3755   73.1325   -2.3521 O.3     1  UNL1       -0.4371
      3 O          24.0854   70.8679   -3.2112 O.2     1  UNL1       -0.5170
      4 O          22.6236   70.9163   -1.1540 O.3     1  UNL1       -0.3112
      5 C          21.3217   70.9537   -0.5666 C.3     1  UNL1        0.1811
      6 C          23.1068   71.9033    2.4080 C.3     1  UNL1        0.2383
      7 C          22.5402   73.2344    1.8519 C.3     1  UNL1        0.1895
      8 O          22.2648   74.1534    2.9108 O.3     1  UNL1       -0.3779
      9 C          21.2305   72.7702    1.1687 C.3     1  UNL1        0.1713
     10 C          21.4452   71.2638    0.9272 C.3     1  UNL1        0.1764
     11 O          22.7679   70.9413    1.3856 O.3     1  UNL1       -0.3308
     12 O          20.1138   72.9844    2.0334 O.3     1  UNL1       -0.3794
     13 H          21.9089   75.0016    2.6132 H       1  UNL1        0.2106
     14 H          19.9678   73.9111    2.2665 H       1  UNL1        0.2105
     15 N          24.5594   71.9903    2.5738 N.ar    1  UNL1       -0.2551
     16 C          25.3125   70.8836    2.4439 C.ar    1  UNL1        0.3323
     17 N          26.6496   70.9342    2.5912 N.ar    1  UNL1       -0.2743
     18 C          27.2577   72.1048    2.8715 C.ar    1  UNL1        0.2626
     19 C          26.4773   73.2778    3.0099 C.ar    1  UNL1        0.0795
     20 C          25.1392   73.1986    2.8528 C.ar    1  UNL1        0.0869
     21 O          24.7777   69.8213    2.1911 O.2     1  UNL1       -0.2464
     22 O          28.4679   72.1521    3.0047 O.2     1  UNL1       -0.2670
     23 H          27.1775   70.1266    2.4955 H       1  UNL1        0.1734
     24 O          21.6668   71.5168   -3.5283 O.3     1  UNL1       -0.2703
     25 P          20.6767   72.6192   -4.1586 P.3     1  UNL1        0.2208
     26 O          20.2673   73.6844   -3.0221 O.3     1  UNL1       -0.4371
     27 O          21.3604   73.3202   -5.2675 O.2     1  UNL1       -0.5170
     28 O          19.3521   71.8940   -4.7172 O.3     1  UNL1       -0.2865
     29 C          19.2586   70.4807   -4.9045 C.3     1  UNL1        0.2611
     30 C          18.3116   70.1808   -6.0690 C.3     1  UNL1        0.1582
     31 C          16.9117   70.6978   -5.7234 C.3     1  UNL1        0.1625
     32 C          16.4480   70.0491   -4.4162 C.3     1  UNL1        0.1686
     33 C          17.4671   70.3542   -3.3152 C.3     1  UNL1        0.1760
     34 O          16.0043   70.3568   -6.7739 O.3     1  UNL1       -0.3801
     35 O          16.3457   68.6352   -4.5947 O.3     1  UNL1       -0.3794
     36 O          18.7533   69.8750   -3.7128 O.3     1  UNL1       -0.3263
     37 H          15.0970   70.6548   -6.6215 H       1  UNL1        0.2105
     38 H          16.0567   68.1582   -3.8041 H       1  UNL1        0.2105
     39 C          18.6731   70.2482   -8.4778 C.2     1  UNL1        0.2231
     40 C          19.1706   70.9362   -9.7219 C.3     1  UNL1        0.0946
     41 N          18.7961   70.8506   -7.2786 N.am    1  UNL1       -0.2994
     42 O          18.1611   69.1509   -8.5548 O.2     1  UNL1       -0.2751
     43 H          19.2062   71.7275   -7.2165 H       1  UNL1        0.1496
     44 C          17.0417   69.6596   -2.0202 C.3     1  UNL1        0.1693
     45 O          17.3727   68.2712   -2.0925 O.3     1  UNL1       -0.3794
     46 H          17.1309   67.7671   -1.3036 H       1  UNL1        0.2105
@<TRIPOS>BOND
     1    29    30    1
     2    30    41    1
     3    30    31    1
     4    31    34    1
     5    31    32    1
     6    32    35    1
     7    32    33    1
     8    33    36    1
     9    33    44    1
    10    39    40    1
    11    39    42    2
    12    39    41   am
    13    41    43    1
    14    29    28    1
    15    34    37    1
    16    35    38    1
    17    29    36    1
    18    44    45    1
    19    45    46    1
    20    15     6    1
    21    15    16   ar
    22    16    21    2
    23    16    17   ar
    24    17    23    1
    25    17    18   ar
    26    18    19   ar
    27    19    20   ar
    28    15    20   ar
    29    18    22    2
    30     6     7    1
    31     6    11    1
    32     7     9    1
    33     7     8    1
    34     8    13    1
    35     9    10    1
    36     9    12    1
    37    10     5    1
    38    10    11    1
    39    12    14    1
    40     5     4    1
    41     4     1    1
    42     1     2    1
    43     1    24    1
    44     1     3    2
    45    24    25    1
    46    28    25    1
    47    25    26    1
    48    25    27    2
@<TRIPOS>MOLECULE
UD2
 46 48 0 0 0
SMALL
GASTEIGER

@<TRIPOS>ATOM
      1 P          20.3326   71.0142   -2.7261 P.3     1  UNL1        0.2189
      2 O          19.9587   70.4207   -1.2772 O.3     1  UNL1       -0.4371
      3 O          20.6103   69.9003   -3.6594 O.2     1  UNL1       -0.5170
      4 O          19.0988   71.8865   -3.2833 O.3     1  UNL1       -0.3112
      5 C          17.8072   71.8846   -2.6724 C.3     1  UNL1        0.1811
      6 C          16.7493   70.5049   -5.8210 C.3     1  UNL1        0.2383
      7 C          17.1716   69.2745   -4.9785 C.3     1  UNL1        0.1895
      8 O          16.4056   68.1230   -5.3380 O.3     1  UNL1       -0.3779
      9 C          16.8346   69.7347   -3.5391 C.3     1  UNL1        0.1713
     10 C          16.7884   71.2716   -3.6363 C.3     1  UNL1        0.1764
     11 O          17.1206   71.6249   -4.9884 O.3     1  UNL1       -0.3308
     12 O          15.5646   69.2202   -3.1352 O.3     1  UNL1       -0.3794
     13 H          16.6335   67.3271   -4.8387 H       1  UNL1        0.2106
     14 H          15.5192   68.2548   -3.1139 H       1  UNL1        0.2105
     15 N          17.4824   70.5384   -7.0885 N.ar    1  UNL1       -0.2551
     16 C          16.8047   70.5789   -8.2495 C.ar    1  UNL1        0.3323
     17 N          17.4525   70.6101   -9.4291 N.ar    1  UNL1       -0.2743
     18 C          18.8006   70.6030   -9.4635 C.ar    1  UNL1        0.2626
     19 C          19.5267   70.5616   -8.2489 C.ar    1  UNL1        0.0795
     20 C          18.8514   70.5352   -7.0807 C.ar    1  UNL1        0.0869
     21 O          15.5889   70.5860   -8.2336 O.2     1  UNL1       -0.2464
     22 O          19.3882   70.6317  -10.5305 O.2     1  UNL1       -0.2670
     23 H          16.9485   70.6380  -10.2569 H       1  UNL1        0.1734
     24 O          21.6377   71.9495   -2.6027 O.3     1  UNL1       -0.2703
     25 P          22.8011   72.3859   -3.6269 P.3     1  UNL1        0.2208
     26 O          24.0761   71.4213   -3.4328 O.3     1  UNL1       -0.4371
     27 O          22.3043   72.2723   -5.0157 O.2     1  UNL1       -0.5170
     28 O          23.2308   73.9097   -3.3332 O.3     1  UNL1       -0.2865
     29 C          24.5793   74.3711   -3.4324 C.3     1  UNL1        0.2611
     30 C          24.8367   75.4324   -2.3600 C.3     1  UNL1        0.1582
     31 C          23.9156   76.6308   -2.6084 C.3     1  UNL1        0.1625
     32 C          24.1594   77.1639   -4.0228 C.3     1  UNL1        0.1686
     33 C          23.9280   76.0356   -5.0314 C.3     1  UNL1        0.1760
     34 O          24.2005   77.6573   -1.6553 O.3     1  UNL1       -0.3801
     35 O          25.5044   77.6335   -4.1310 O.3     1  UNL1       -0.3794
     36 O          24.7935   74.9405   -4.7256 O.3     1  UNL1       -0.3263
     37 H          23.6522   78.4478   -1.7535 H       1  UNL1        0.2105
     38 H          25.7298   77.9858   -5.0034 H       1  UNL1        0.2105
     39 C          23.3305   74.9860   -0.4973 C.2     1  UNL1        0.2231
     40 C          23.0449   74.4057    0.8630 C.3     1  UNL1        0.0946
     41 N          24.5598   74.8679   -1.0366 N.am    1  UNL1       -0.2994
     42 O          22.4535   75.5602   -1.1083 O.2     1  UNL1       -0.2751
     43 H          25.2615   74.4098   -0.5480 H       1  UNL1        0.1496
     44 C          24.2275   76.5442   -6.4428 C.3     1  UNL1        0.1693
     45 O          25.5768   76.2243   -6.7888 O.3     1  UNL1       -0.3794
     46 H          25.8368   76.5177   -7.6727 H       1  UNL1        0.2105
@<TRIPOS>BOND
     1    29    30    1
     2    30    41    1
     3    30    31    1
     4    31    34    1
     5    31    32    1
     6    32    35    1
     7    32    33    1
     8    33    36    1
     9    33    44    1
    10    39    40    1
    11    39    42    2
    12    39    41   am
    13    41    43    1
    14    29    28    1
    15    34    37    1
    16    35    38    1
    17    29    36    1
    18    44    45    1
    19    45    46    1
    20    15     6    1
    21    15    16   ar
    22    16    21    2
    23    16    17   ar
    24    17    23    1
    25    17    18   ar
    26    18    19   ar
    27    19    20   ar
    28    15    20   ar
    29    18    22    2
    30     6     7    1
    31     6    11    1
    32     7     9    1
    33     7     8    1
    34     8    13    1
    35     9    10    1
    36     9    12    1
    37    10     5    1
    38    10    11    1
    39    12    14    1
    40     5     4    1
    41     4     1    1
    42     1     2    1
    43     1    24    1
    44     1     3    2
    45    24    25    1
    46    28    25    1
    47    25    26    1
    48    25    27    2
@<TRIPOS>MOLECULE
UD2
 46 48 0 0 0
SMALL
GASTEIGER

@<TRIPOS>ATOM
      1 P          23.3865   71.7648   -2.9687 P.3     1  UNL1        0.2189
      2 O          24.0866   72.9902   -3.7431 O.3     1  UNL1       -0.4371
      3 O          24.2837   70.5887   -2.9921 O.2     1  UNL1       -0.5170
      4 O          23.0980   72.1896   -1.4423 O.3     1  UNL1       -0.3112
      5 C          24.0661   72.0508   -0.4007 C.3     1  UNL1        0.1811
      6 C          22.9184   72.0097    3.0078 C.3     1  UNL1        0.2383
      7 C          21.6861   72.4680    2.1871 C.3     1  UNL1        0.1895
      8 O          20.4721   72.0425    2.8090 O.3     1  UNL1       -0.3779
      9 C          21.9023   71.7366    0.8396 C.3     1  UNL1        0.1713
     10 C          23.4082   71.4119    0.8248 C.3     1  UNL1        0.1764
     11 O          23.9758   71.9595    2.0254 O.3     1  UNL1       -0.3308
     12 O          21.1306   70.5352    0.7947 O.3     1  UNL1       -0.3794
     13 H          19.6728   72.3059    2.3332 H       1  UNL1        0.2106
     14 H          20.1767   70.6769    0.8603 H       1  UNL1        0.2105
     15 N          23.2323   72.9843    4.0549 N.ar    1  UNL1       -0.2551
     16 C          24.0448   74.0200    3.7795 C.ar    1  UNL1        0.3323
     17 N          24.3505   74.9306    4.7226 N.ar    1  UNL1       -0.2743
     18 C          23.8409   74.8173    5.9660 C.ar    1  UNL1        0.2626
     19 C          22.9834   73.7326    6.2696 C.ar    1  UNL1        0.0795
     20 C          22.6905   72.8368    5.3035 C.ar    1  UNL1        0.0869
     21 O          24.5113   74.1349    2.6625 O.2     1  UNL1       -0.2464
     22 O          24.1165   75.6411    6.8204 O.2     1  UNL1       -0.2670
     23 H          24.9389   75.6707    4.5074 H       1  UNL1        0.1734
     24 O          21.9971   71.3949   -3.6939 O.3     1  UNL1       -0.2703
     25 P          21.0740   72.1359   -4.7855 P.3     1  UNL1        0.2208
     26 O          21.0935   73.7235   -4.5153 O.3     1  UNL1       -0.4371
     27 O          21.5960   71.8606   -6.1420 O.2     1  UNL1       -0.5170
     28 O          19.5635   71.5900   -4.6703 O.3     1  UNL1       -0.2865
     29 C          19.2052   70.2311   -4.9276 C.3     1  UNL1        0.2611
     30 C          18.2121   70.1758   -6.0909 C.3     1  UNL1        0.1582
     31 C          16.9362   70.9268   -5.6979 C.3     1  UNL1        0.1625
     32 C          16.3663   70.3085   -4.4183 C.3     1  UNL1        0.1686
     33 C          17.4309   70.3588   -3.3191 C.3     1  UNL1        0.1760
     34 O          15.9749   70.8177   -6.7502 O.3     1  UNL1       -0.3801
     35 O          15.9992   68.9502   -4.6666 O.3     1  UNL1       -0.3794
     36 O          18.6019   69.6689   -3.7604 O.3     1  UNL1       -0.3263
     37 H          15.1406   71.2719   -6.5689 H       1  UNL1        0.2105
     38 H          15.6303   68.4948   -3.8969 H       1  UNL1        0.2105
     39 C          18.6352   70.2530   -8.4894 C.2     1  UNL1        0.2231
     40 C          19.2461   70.9001   -9.7045 C.3     1  UNL1        0.0946
     41 N          18.8068   70.8058   -7.2724 N.am    1  UNL1       -0.2994
     42 O          17.9881   69.2332   -8.6057 O.2     1  UNL1       -0.2751
     43 H          19.3249   71.6205   -7.1788 H       1  UNL1        0.1496
     44 C          16.8900   69.6890   -2.0546 C.3     1  UNL1        0.1693
     45 O          17.1552   68.2857   -2.1073 O.3     1  UNL1       -0.3794
     46 H          16.8389   67.7958   -1.3359 H       1  UNL1        0.2105
@<TRIPOS>BOND
     1    29    30    1
     2    30    41    1
     3    30    31    1
     4    31    34    1
     5    31    32    1
     6    32    35    1
     7    32    33    1
     8    33    36    1
     9    33    44    1
    10    39    40    1
    11    39    42    2
    12    39    41   am
    13    41    43    1
    14    29    28    1
    15    34    37    1
    16    35    38    1
    17    29    36    1
    18    44    45    1
    19    45    46    1
    20    15     6    1
    21    15    16   ar
    22    16    21    2
    23    16    17   ar
    24    17    23    1
    25    17    18   ar
    26    18    19   ar
    27    19    20   ar
    28    15    20   ar
    29    18    22    2
    30     6     7    1
    31     6    11    1
    32     7     9    1
    33     7     8    1
    34     8    13    1
    35     9    10    1
    36     9    12    1
    37    10     5    1
    38    10    11    1
    39    12    14    1
    40     5     4    1
    41     4     1    1
    42     1     2    1
    43     1    24    1
    44     1     3    2
    45    24    25    1
    46    28    25    1
    47    25    26    1
    48    25    27    2
