@<TRIPOS>MOLECULE
*****
 43 45 0 0 0
SMALL
GASTEIGER

@<TRIPOS>ATOM
      1 P          22.8484   71.3673   -2.3291 P.3     1  UNL1        0.2189
      2 O          22.4048   72.8393   -2.8346 O.co2   1  UNL1       -0.4371
      3 O          24.1199   70.8468   -2.9324 O.2     1  UNL1       -0.5170
      4 O          21.5315   70.4595   -2.5735 O.3     1  UNL1       -0.3112
      5 C          20.8550   70.5692   -3.8123 C.3     1  UNL1        0.1811
      6 O          18.9320   71.6548   -4.7615 O.3     1  UNL1       -0.3308
      7 O          17.3599   70.4078   -2.5333 O.3     1  UNL1       -0.3794
      8 O          16.8015   68.7736   -4.6437 O.3     1  UNL1       -0.3779
      9 C          18.4685   69.8805   -3.2623 C.3     1  UNL1        0.1713
     10 C          18.0326   69.4656   -4.6516 C.3     1  UNL1        0.1895
     11 C          19.4249   71.0277   -3.5577 C.3     1  UNL1        0.1764
     12 C          17.9473   70.8027   -5.3678 C.3     1  UNL1        0.2383
     13 H          16.7348   69.6931   -2.3330 H       1  UNL1        0.2105
     14 H          16.9082   67.9294   -4.1768 H       1  UNL1        0.2106
     15 O          16.0129   70.2032   -7.3364 O.2     1  UNL1       -0.2464
     16 O          19.1331   70.4003  -10.7231 O.2     1  UNL1       -0.2670
     17 N          18.2268   70.6913   -6.7715 N.ar    1  UNL1       -0.2551
     18 N          17.5690   70.3010   -9.0212 N.ar    1  UNL1       -0.2743
     19 C          17.1832   70.3861   -7.6769 C.ar    1  UNL1        0.3323
     20 C          19.5211   70.8850   -7.2384 C.ar    1  UNL1        0.0869
     21 C          19.8735   70.8007   -8.5228 C.ar    1  UNL1        0.0795
     22 C          18.8430   70.4848   -9.5336 C.ar    1  UNL1        0.2626
     23 H          16.8600   70.0875   -9.6701 H       1  UNL1        0.1734
     24 O          22.8836   71.5311   -0.7214 O.3     1  UNL1       -0.2703
     25 P          21.6886   71.5917    0.3658 P.3     1  UNL1        0.2208
     26 O          21.6318   70.0784    0.9377 O.co2   1  UNL1       -0.4371
     27 O          20.3842   72.0958   -0.1804 O.2     1  UNL1       -0.5170
     28 O          22.2868   72.4648    1.5833 O.3     1  UNL1       -0.2858
     29 O          24.0792   71.4390    2.7426 O.3     1  UNL1       -0.3226
     30 O          23.2368   74.6650    5.1821 O.3     1  UNL1       -0.3794
     31 O          21.0735   73.0932    4.0059 O.3     1  UNL1       -0.3775
     32 O          25.5733   74.7139    3.4532 O.3     1  UNL1       -0.3792
     33 C          23.3397   73.9573    3.9466 C.3     1  UNL1        0.1718
     34 C          22.4458   72.7177    3.9909 C.3     1  UNL1        0.1968
     35 C          24.8028   73.5519    3.7542 C.3     1  UNL1        0.1723
     36 C          22.7021   71.8150    2.7833 C.3     1  UNL1        0.2706
     37 C          24.9585   72.5537    2.6106 C.3     1  UNL1        0.1830
     38 H          22.3155   74.9328    5.3258 H       1  UNL1        0.2105
     39 H          20.9038   73.6664    4.7695 H       1  UNL1        0.2106
     40 H          25.4828   75.3574    4.1733 H       1  UNL1        0.2106
     41 O          27.2097   72.7369    3.2431 O.co2   1  UNL1       -0.5466
     42 O          26.5785   70.8161    2.1890 O.co2   1  UNL1       -0.5466
     43 C          26.3109   71.9195    2.6405 C.2     1  UNL1        0.0799
@<TRIPOS>UNITY_ATOM_ATTR
2 1
charge -1
26 1
charge -1
41 1
charge -1
@<TRIPOS>BOND
     1     1     4    1
     2     1    24    1
     3     1     2    1
     4     1     3    2
     5    25    28    1
     6    25    24    1
     7    25    26    1
     8    25    27    2
     9     6    11    1
    10     6    12    1
    11    29    36    1
    12    29    37    1
    13     7     9    1
    14     7    13    1
    15     8    10    1
    16     8    14    1
    17     4     5    1
    18    28    36    1
    19    30    33    1
    20    30    38    1
    21    31    34    1
    22    31    39    1
    23    32    35    1
    24    32    40    1
    25    41    43   ar
    26    15    19    2
    27    42    43   ar
    28    16    22    2
    29    17    12    1
    30    17    19   ar
    31    17    20   ar
    32    18    19   ar
    33    18    22   ar
    34    18    23    1
    35     9    10    1
    36     9    11    1
    37    10    12    1
    38    11     5    1
    39    33    34    1
    40    33    35    1
    41    34    36    1
    42    35    37    1
    43    37    43    1
    44    20    21   ar
    45    21    22   ar
@<TRIPOS>MOLECULE
*****
 43 45 0 0 0
SMALL
GASTEIGER

@<TRIPOS>ATOM
      1 P          21.6322   72.5305   -4.7321 P.3     1  UNL1        0.2189
      2 O          21.1834   74.0837   -4.8042 O.co2   1  UNL1       -0.4371
      3 O          22.7417   72.1476   -5.6671 O.2     1  UNL1       -0.5170
      4 O          20.2460   71.7166   -4.9162 O.3     1  UNL1       -0.3112
      5 C          19.6846   71.0733   -3.7868 C.3     1  UNL1        0.1811
      6 O          17.7985   71.7151   -5.1315 O.3     1  UNL1       -0.3308
      7 O          16.1081   70.2747   -3.1168 O.3     1  UNL1       -0.3794
      8 O          16.2622   68.4758   -5.1604 O.3     1  UNL1       -0.3779
      9 C          17.4103   69.9481   -3.6027 C.3     1  UNL1        0.1713
     10 C          17.3217   69.3975   -5.0103 C.3     1  UNL1        0.1895
     11 C          18.1718   71.2490   -3.8167 C.3     1  UNL1        0.1764
     12 C          17.1192   70.6600   -5.8306 C.3     1  UNL1        0.2383
     13 H          15.6025   69.4591   -2.9725 H       1  UNL1        0.2105
     14 H          16.4383   67.6898   -4.6190 H       1  UNL1        0.2106
     15 O          15.5873   70.7329   -8.2022 O.2     1  UNL1       -0.2464
     16 O          19.3257   70.2208  -10.8491 O.2     1  UNL1       -0.2670
     17 N          17.6666   70.5480   -7.1529 N.ar    1  UNL1       -0.2551
     18 N          17.4506   70.4768   -9.5182 N.ar    1  UNL1       -0.2743
     19 C          16.8099   70.5966   -8.2780 C.ar    1  UNL1        0.3323
     20 C          19.0368   70.3938   -7.3256 C.ar    1  UNL1        0.0869
     21 C          19.6329   70.2810   -8.5142 C.ar    1  UNL1        0.0795
     22 C          18.8093   70.3211   -9.7403 C.ar    1  UNL1        0.2626
     23 H          16.8745   70.5057  -10.3161 H       1  UNL1        0.1734
     24 O          21.9703   72.3228   -3.1652 O.3     1  UNL1       -0.2703
     25 P          23.3800   72.1126   -2.4022 P.3     1  UNL1        0.2208
     26 O          24.1705   73.4938   -2.6986 O.co2   1  UNL1       -0.4371
     27 O          24.1235   70.8744   -2.8122 O.2     1  UNL1       -0.5170
     28 O          23.0109   72.1833   -0.8334 O.3     1  UNL1       -0.2858
     29 O          24.3624   71.0365    0.7373 O.3     1  UNL1       -0.3226
     30 O          20.9364   71.7447    2.9347 O.3     1  UNL1       -0.3794
     31 O          20.7573   70.8827    0.1492 O.3     1  UNL1       -0.3775
     32 O          23.3239   73.3364    3.4008 O.3     1  UNL1       -0.3792
     33 C          21.9296   72.0158    1.9458 C.3     1  UNL1        0.1718
     34 C          21.9533   70.8823    0.9201 C.3     1  UNL1        0.1968
     35 C          23.2831   72.1232    2.6518 C.3     1  UNL1        0.1723
     36 C          23.1518   71.0201   -0.0199 C.3     1  UNL1        0.2706
     37 C          24.4347   72.1290    1.6507 C.3     1  UNL1        0.1830
     38 H          20.0675   71.6722    2.5092 H       1  UNL1        0.2105
     39 H          19.9927   70.7958    0.7393 H       1  UNL1        0.2106
     40 H          22.5958   73.3454    4.0417 H       1  UNL1        0.2106
     41 O          26.0931   70.5947    2.2811 O.co2   1  UNL1       -0.5466
     42 O          26.4045   72.7705    2.8876 O.co2   1  UNL1       -0.5466
     43 C          25.7397   71.9025    2.3421 C.2     1  UNL1        0.0799
@<TRIPOS>UNITY_ATOM_ATTR
2 1
charge -1
26 1
charge -1
41 1
charge -1
@<TRIPOS>BOND
     1     1     4    1
     2     1    24    1
     3     1     2    1
     4     1     3    2
     5    25    28    1
     6    25    24    1
     7    25    26    1
     8    25    27    2
     9     6    11    1
    10     6    12    1
    11    29    36    1
    12    29    37    1
    13     7     9    1
    14     7    13    1
    15     8    10    1
    16     8    14    1
    17     4     5    1
    18    28    36    1
    19    30    33    1
    20    30    38    1
    21    31    34    1
    22    31    39    1
    23    32    35    1
    24    32    40    1
    25    41    43   ar
    26    15    19    2
    27    42    43   ar
    28    16    22    2
    29    17    12    1
    30    17    19   ar
    31    17    20   ar
    32    18    19   ar
    33    18    22   ar
    34    18    23    1
    35     9    10    1
    36     9    11    1
    37    10    12    1
    38    11     5    1
    39    33    34    1
    40    33    35    1
    41    34    36    1
    42    35    37    1
    43    37    43    1
    44    20    21   ar
    45    21    22   ar
@<TRIPOS>MOLECULE
*****
 43 45 0 0 0
SMALL
GASTEIGER

@<TRIPOS>ATOM
      1 P          20.5497   72.5860   -5.1655 P.3     1  UNL1        0.2189
      2 O          20.5618   71.8766   -3.7110 O.co2   1  UNL1       -0.4371
      3 O          19.6308   73.7661   -5.2872 O.2     1  UNL1       -0.5170
      4 O          20.2664   71.3663   -6.1902 O.3     1  UNL1       -0.3112
      5 C          20.1119   71.6614   -7.5663 C.3     1  UNL1        0.1811
      6 O          18.6818   69.7654   -7.1953 O.3     1  UNL1       -0.3308
      7 O          17.9316   70.0001  -10.0891 O.3     1  UNL1       -0.3794
      8 O          15.8103   71.1598   -8.8276 O.3     1  UNL1       -0.3779
      9 C          18.2178   71.0307   -9.1433 C.3     1  UNL1        0.1713
     10 C          17.0633   71.1905   -8.1768 C.3     1  UNL1        0.1895
     11 C          19.3310   70.5348   -8.2306 C.3     1  UNL1        0.1764
     12 C          17.2670   70.0087   -7.2442 C.3     1  UNL1        0.2383
     13 H          17.2230   70.2939  -10.6834 H       1  UNL1        0.2105
     14 H          15.7291   71.9325   -9.4093 H       1  UNL1        0.2106
     15 O          16.4322   68.0154   -5.4259 O.2     1  UNL1       -0.2464
     16 O          15.4642   71.1321   -2.1711 O.2     1  UNL1       -0.2670
     17 N          16.7922   70.2714   -5.9151 N.ar    1  UNL1       -0.2551
     18 N          15.9499   69.5696   -3.8069 N.ar    1  UNL1       -0.2743
     19 C          16.3969   69.1983   -5.0818 C.ar    1  UNL1        0.3323
     20 C          16.7234   71.5786   -5.4489 C.ar    1  UNL1        0.0869
     21 C          16.2952   71.9169   -4.2311 C.ar    1  UNL1        0.0795
     22 C          15.8629   70.8555   -3.2985 C.ar    1  UNL1        0.2626
     23 H          15.6674   68.8399   -3.2094 H       1  UNL1        0.1734
     24 O          22.1108   72.9191   -5.4197 O.3     1  UNL1       -0.2703
     25 P          23.1383   73.8709   -4.6122 P.3     1  UNL1        0.2208
     26 O          24.3091   72.8496   -4.1578 O.co2   1  UNL1       -0.4371
     27 O          22.5112   74.6349   -3.4821 O.2     1  UNL1       -0.5170
     28 O          23.8200   74.7930   -5.7469 O.3     1  UNL1       -0.2858
     29 O          24.0548   77.1384   -5.9767 O.3     1  UNL1       -0.3226
     30 O          23.4613   75.9651   -9.8932 O.3     1  UNL1       -0.3794
     31 O          21.8785   74.7876   -7.7386 O.3     1  UNL1       -0.3775
     32 O          26.1209   76.6982   -8.9767 O.3     1  UNL1       -0.3792
     33 C          23.9153   75.8290   -8.5466 C.3     1  UNL1        0.1718
     34 C          22.7240   75.9228   -7.5930 C.3     1  UNL1        0.1968
     35 C          24.9110   76.9570   -8.2670 C.3     1  UNL1        0.1723
     36 C          23.1922   76.0120   -6.1398 C.3     1  UNL1        0.2706
     37 C          25.2312   77.0612   -6.7787 C.3     1  UNL1        0.1830
     38 H          22.8272   75.2588  -10.0938 H       1  UNL1        0.2105
     39 H          21.5780   74.7246   -8.6584 H       1  UNL1        0.2106
     40 H          25.9309   76.6295   -9.9254 H       1  UNL1        0.2106
     41 O          27.2307   78.2852   -6.8509 O.co2   1  UNL1       -0.5466
     42 O          25.4066   79.3244   -5.9612 O.co2   1  UNL1       -0.5466
     43 C          25.9293   78.3468   -6.4750 C.2     1  UNL1        0.0799
@<TRIPOS>UNITY_ATOM_ATTR
2 1
charge -1
26 1
charge -1
41 1
charge -1
@<TRIPOS>BOND
     1     1     4    1
     2     1    24    1
     3     1     2    1
     4     1     3    2
     5    25    28    1
     6    25    24    1
     7    25    26    1
     8    25    27    2
     9     6    11    1
    10     6    12    1
    11    29    36    1
    12    29    37    1
    13     7     9    1
    14     7    13    1
    15     8    10    1
    16     8    14    1
    17     4     5    1
    18    28    36    1
    19    30    33    1
    20    30    38    1
    21    31    34    1
    22    31    39    1
    23    32    35    1
    24    32    40    1
    25    41    43   ar
    26    15    19    2
    27    42    43   ar
    28    16    22    2
    29    17    12    1
    30    17    19   ar
    31    17    20   ar
    32    18    19   ar
    33    18    22   ar
    34    18    23    1
    35     9    10    1
    36     9    11    1
    37    10    12    1
    38    11     5    1
    39    33    34    1
    40    33    35    1
    41    34    36    1
    42    35    37    1
    43    37    43    1
    44    20    21   ar
    45    21    22   ar
@<TRIPOS>MOLECULE
*****
 43 45 0 0 0
SMALL
GASTEIGER

@<TRIPOS>ATOM
      1 P          21.3459   72.6246   -5.5152 P.3     1  UNL1        0.2189
      2 O          20.1685   73.3558   -4.6799 O.co2   1  UNL1       -0.4371
      3 O          22.2421   73.5478   -6.2875 O.2     1  UNL1       -0.5170
      4 O          20.5666   71.5081   -6.3892 O.3     1  UNL1       -0.3112
      5 C          20.1477   71.8457   -7.6988 C.3     1  UNL1        0.1811
      6 O          18.8602   69.8671   -7.2461 O.3     1  UNL1       -0.3308
      7 O          18.0403   69.9663  -10.1288 O.3     1  UNL1       -0.3794
      8 O          15.8681   71.0128   -8.8551 O.3     1  UNL1       -0.3779
      9 C          18.2722   71.0409   -9.2177 C.3     1  UNL1        0.1713
     10 C          17.1282   71.1484   -8.2319 C.3     1  UNL1        0.1895
     11 C          19.4345   70.6494   -8.3155 C.3     1  UNL1        0.1764
     12 C          17.4312   70.0107   -7.2718 C.3     1  UNL1        0.2383
     13 H          17.3018   70.1933  -10.7158 H       1  UNL1        0.2105
     14 H          15.7223   71.7610   -9.4558 H       1  UNL1        0.2106
     15 O          16.2615   68.0806   -5.5740 O.2     1  UNL1       -0.2464
     16 O          15.6783   71.1492   -2.1847 O.2     1  UNL1       -0.2670
     17 N          16.9648   70.2781   -5.9407 N.ar    1  UNL1       -0.2551
     18 N          15.9712   69.6110   -3.8879 N.ar    1  UNL1       -0.2743
     19 C          16.3925   69.2379   -5.1710 C.ar    1  UNL1        0.3323
     20 C          17.0778   71.5574   -5.4101 C.ar    1  UNL1        0.0869
     21 C          16.6718   71.8979   -4.1854 C.ar    1  UNL1        0.0795
     22 C          16.0619   70.8699   -3.3166 C.ar    1  UNL1        0.2626
     23 H          15.5676   68.9042   -3.3340 H       1  UNL1        0.1734
     24 O          22.0977   71.7437   -4.3875 O.3     1  UNL1       -0.2703
     25 P          23.3872   72.0720   -3.4693 P.3     1  UNL1        0.2208
     26 O          24.2748   73.0435   -4.4119 O.co2   1  UNL1       -0.4371
     27 O          24.1159   70.8565   -2.9739 O.2     1  UNL1       -0.5170
     28 O          22.8254   73.0367   -2.3047 O.3     1  UNL1       -0.2858
     29 O          21.7276   71.7861   -0.6195 O.3     1  UNL1       -0.3226
     30 O          21.0340   75.6639    0.6251 O.3     1  UNL1       -0.3794
     31 O          20.8126   74.9533   -2.1999 O.3     1  UNL1       -0.3775
     32 O          23.0243   74.0317    1.9762 O.3     1  UNL1       -0.3792
     33 C          21.7635   74.6052    0.0048 C.3     1  UNL1        0.1718
     34 C          20.9367   74.0147   -1.1377 C.3     1  UNL1        0.1968
     35 C          22.0432   73.5385    1.0659 C.3     1  UNL1        0.1723
     36 C          21.5810   72.7363   -1.6755 C.3     1  UNL1        0.2706
     37 C          22.5656   72.2502    0.4367 C.3     1  UNL1        0.1830
     38 H          20.8448   76.3538   -0.0303 H       1  UNL1        0.2105
     39 H          20.4047   75.7672   -1.8657 H       1  UNL1        0.2106
     40 H          22.7042   74.8517    2.3836 H       1  UNL1        0.2106
     41 O          21.5970   70.2042    1.0508 O.co2   1  UNL1       -0.5466
     42 O          23.2222   71.0371    2.4161 O.co2   1  UNL1       -0.5466
     43 C          22.5223   71.1248    1.4184 C.2     1  UNL1        0.0799
@<TRIPOS>UNITY_ATOM_ATTR
2 1
charge -1
26 1
charge -1
41 1
charge -1
@<TRIPOS>BOND
     1     1     4    1
     2     1    24    1
     3     1     2    1
     4     1     3    2
     5    25    28    1
     6    25    24    1
     7    25    26    1
     8    25    27    2
     9     6    11    1
    10     6    12    1
    11    29    36    1
    12    29    37    1
    13     7     9    1
    14     7    13    1
    15     8    10    1
    16     8    14    1
    17     4     5    1
    18    28    36    1
    19    30    33    1
    20    30    38    1
    21    31    34    1
    22    31    39    1
    23    32    35    1
    24    32    40    1
    25    41    43   ar
    26    15    19    2
    27    42    43   ar
    28    16    22    2
    29    17    12    1
    30    17    19   ar
    31    17    20   ar
    32    18    19   ar
    33    18    22   ar
    34    18    23    1
    35     9    10    1
    36     9    11    1
    37    10    12    1
    38    11     5    1
    39    33    34    1
    40    33    35    1
    41    34    36    1
    42    35    37    1
    43    37    43    1
    44    20    21   ar
    45    21    22   ar
@<TRIPOS>MOLECULE
*****
 43 45 0 0 0
SMALL
GASTEIGER

@<TRIPOS>ATOM
      1 P          20.7480   71.0871   -3.5063 P.3     1  UNL1        0.2189
      2 O          21.0752   72.0661   -4.7526 O.co2   1  UNL1       -0.4371
      3 O          20.9527   69.6255   -3.7781 O.2     1  UNL1       -0.5170
      4 O          19.2537   71.5157   -3.0575 O.3     1  UNL1       -0.3112
      5 C          18.5480   72.4462   -3.8579 C.3     1  UNL1        0.1811
      6 O          16.7950   72.0155   -5.4451 O.3     1  UNL1       -0.3308
      7 O          15.5337   70.3260   -3.3129 O.3     1  UNL1       -0.3794
      8 O          16.7087   68.4688   -4.9273 O.3     1  UNL1       -0.3779
      9 C          16.9158   70.5091   -3.6210 C.3     1  UNL1        0.1713
     10 C          17.2735   69.7627   -4.8887 C.3     1  UNL1        0.1895
     11 C          17.1158   71.9597   -4.0382 C.3     1  UNL1        0.1764
     12 C          16.7118   70.6782   -5.9630 C.3     1  UNL1        0.2383
     13 H          15.3813   69.4063   -3.0436 H       1  UNL1        0.2105
     14 H          17.0988   67.9247   -4.2247 H       1  UNL1        0.2106
     15 O          15.5471   70.6619   -8.5359 O.2     1  UNL1       -0.2464
     16 O          19.6614   70.3950  -10.5963 O.2     1  UNL1       -0.2670
     17 N          17.4552   70.6052   -7.1889 N.ar    1  UNL1       -0.2551
     18 N          17.5973   70.5280   -9.5596 N.ar    1  UNL1       -0.2743
     19 C          16.7735   70.6032   -8.4288 C.ar    1  UNL1        0.3323
     20 C          18.8428   70.5383   -7.1557 C.ar    1  UNL1        0.0869
     21 C          19.6145   70.4671   -8.2420 C.ar    1  UNL1        0.0795
     22 C          18.9810   70.4591   -9.5769 C.ar    1  UNL1        0.2626
     23 H          17.1453   70.5231  -10.4343 H       1  UNL1        0.1734
     24 O          21.6695   71.6872   -2.3217 O.3     1  UNL1       -0.2703
     25 P          21.3218   72.0436   -0.7835 P.3     1  UNL1        0.2208
     26 O          20.6678   70.6723   -0.2249 O.co2   1  UNL1       -0.4371
     27 O          20.4539   73.2567   -0.6135 O.2     1  UNL1       -0.5170
     28 O          22.7561   72.1385   -0.0512 O.3     1  UNL1       -0.2858
     29 O          24.1839   73.5130   -1.3479 O.3     1  UNL1       -0.3226
     30 O          20.8805   75.9474   -0.8694 O.3     1  UNL1       -0.3794
     31 O          21.8930   74.3682    1.3700 O.3     1  UNL1       -0.3775
     32 O          21.3539   74.6126   -3.4081 O.3     1  UNL1       -0.3792
     33 C          21.5776   74.7097   -1.0111 C.3     1  UNL1        0.1718
     34 C          22.5764   74.5508    0.1354 C.3     1  UNL1        0.1968
     35 C          22.3090   74.7301   -2.3552 C.3     1  UNL1        0.1723
     36 C          23.4991   73.3550   -0.1047 C.3     1  UNL1        0.2706
     37 C          23.3021   73.5769   -2.4666 C.3     1  UNL1        0.1830
     38 H          20.4080   75.9575   -0.0221 H       1  UNL1        0.2105
     39 H          21.3055   75.1232    1.5286 H       1  UNL1        0.2106
     40 H          20.7158   75.3407   -3.3486 H       1  UNL1        0.2106
     41 O          24.3367   72.6595   -4.3611 O.co2   1  UNL1       -0.5466
     42 O          24.8219   74.8303   -3.8597 O.co2   1  UNL1       -0.5466
     43 C          24.2331   73.7877   -3.6160 C.2     1  UNL1        0.0799
@<TRIPOS>UNITY_ATOM_ATTR
2 1
charge -1
26 1
charge -1
41 1
charge -1
@<TRIPOS>BOND
     1     1     4    1
     2     1    24    1
     3     1     2    1
     4     1     3    2
     5    25    28    1
     6    25    24    1
     7    25    26    1
     8    25    27    2
     9     6    11    1
    10     6    12    1
    11    29    36    1
    12    29    37    1
    13     7     9    1
    14     7    13    1
    15     8    10    1
    16     8    14    1
    17     4     5    1
    18    28    36    1
    19    30    33    1
    20    30    38    1
    21    31    34    1
    22    31    39    1
    23    32    35    1
    24    32    40    1
    25    41    43   ar
    26    15    19    2
    27    42    43   ar
    28    16    22    2
    29    17    12    1
    30    17    19   ar
    31    17    20   ar
    32    18    19   ar
    33    18    22   ar
    34    18    23    1
    35     9    10    1
    36     9    11    1
    37    10    12    1
    38    11     5    1
    39    33    34    1
    40    33    35    1
    41    34    36    1
    42    35    37    1
    43    37    43    1
    44    20    21   ar
    45    21    22   ar
@<TRIPOS>MOLECULE
*****
 43 45 0 0 0
SMALL
GASTEIGER

@<TRIPOS>ATOM
      1 P          21.5319   72.0927   -2.2782 P.3     1  UNL1        0.2189
      2 O          21.6238   70.7089   -1.4443 O.co2   1  UNL1       -0.4371
      3 O          20.2843   72.8927   -2.0428 O.2     1  UNL1       -0.5170
      4 O          21.7992   71.6423   -3.8091 O.3     1  UNL1       -0.3112
      5 C          21.4562   72.5409   -4.8480 C.3     1  UNL1        0.1811
      6 O          20.5376   70.5667   -5.8662 O.3     1  UNL1       -0.3308
      7 O          20.8793   71.9846   -8.4861 O.3     1  UNL1       -0.3794
      8 O          18.2186   72.3015   -7.9796 O.3     1  UNL1       -0.3779
      9 C          20.5157   72.5160   -7.2118 C.3     1  UNL1        0.1713
     10 C          19.0869   72.1437   -6.8770 C.3     1  UNL1        0.1895
     11 C          21.2995   71.7609   -6.1470 C.3     1  UNL1        0.1764
     12 C          19.2309   70.6932   -6.4489 C.3     1  UNL1        0.2383
     13 H          20.3910   72.4516   -9.1828 H       1  UNL1        0.2105
     14 H          18.1603   73.2417   -8.2133 H       1  UNL1        0.2106
     15 O          16.6376   69.7718   -7.0835 O.2     1  UNL1       -0.2464
     16 O          15.5391   69.2449   -2.6383 O.2     1  UNL1       -0.2670
     17 N          18.2469   70.3084   -5.4770 N.ar    1  UNL1       -0.2551
     18 N          16.0926   69.5112   -4.8689 N.ar    1  UNL1       -0.2743
     19 C          16.9738   69.8595   -5.9010 C.ar    1  UNL1        0.3323
     20 C          18.5471   70.3760   -4.1219 C.ar    1  UNL1        0.0869
     21 C          17.6968   70.0404   -3.1497 C.ar    1  UNL1        0.0795
     22 C          16.3453   69.5621   -3.5076 C.ar    1  UNL1        0.2626
     23 H          15.1994   69.1976   -5.1395 H       1  UNL1        0.1734
     24 O          22.9028   72.8497   -1.8775 O.3     1  UNL1       -0.2703
     25 P          23.1684   74.1370   -0.9363 P.3     1  UNL1        0.2208
     26 O          22.0538   75.1983   -1.4380 O.co2   1  UNL1       -0.4371
     27 O          24.5777   74.6525   -0.9815 O.2     1  UNL1       -0.5170
     28 O          22.6682   73.6831    0.5287 O.3     1  UNL1       -0.2858
     29 O          24.5787   72.7713    1.5905 O.3     1  UNL1       -0.3226
     30 O          21.7649   72.5742    4.6091 O.3     1  UNL1       -0.3794
     31 O          21.0487   71.8612    1.8681 O.3     1  UNL1       -0.3775
     32 O          23.8267   74.6228    4.6676 O.3     1  UNL1       -0.3792
     33 C          22.3953   73.1162    3.4485 C.3     1  UNL1        0.1718
     34 C          22.3784   72.0789    2.3254 C.3     1  UNL1        0.1968
     35 C          23.8358   73.4773    3.8179 C.3     1  UNL1        0.1723
     36 C          23.2419   72.5333    1.1479 C.3     1  UNL1        0.2706
     37 C          24.6656   73.7965    2.5777 C.3     1  UNL1        0.1830
     38 H          20.8480   72.3373    4.3983 H       1  UNL1        0.2105
     39 H          20.4951   71.5729    2.6102 H       1  UNL1        0.2106
     40 H          23.3016   74.4329    5.4608 H       1  UNL1        0.2106
     41 O          26.5173   75.0786    3.2326 O.co2   1  UNL1       -0.5466
     42 O          26.8634   72.8512    2.8894 O.co2   1  UNL1       -0.5466
     43 C          26.1228   73.8228    2.9067 C.2     1  UNL1        0.0799
@<TRIPOS>UNITY_ATOM_ATTR
2 1
charge -1
26 1
charge -1
41 1
charge -1
@<TRIPOS>BOND
     1     1     4    1
     2     1    24    1
     3     1     2    1
     4     1     3    2
     5    25    28    1
     6    25    24    1
     7    25    26    1
     8    25    27    2
     9     6    11    1
    10     6    12    1
    11    29    36    1
    12    29    37    1
    13     7     9    1
    14     7    13    1
    15     8    10    1
    16     8    14    1
    17     4     5    1
    18    28    36    1
    19    30    33    1
    20    30    38    1
    21    31    34    1
    22    31    39    1
    23    32    35    1
    24    32    40    1
    25    41    43   ar
    26    15    19    2
    27    42    43   ar
    28    16    22    2
    29    17    12    1
    30    17    19   ar
    31    17    20   ar
    32    18    19   ar
    33    18    22   ar
    34    18    23    1
    35     9    10    1
    36     9    11    1
    37    10    12    1
    38    11     5    1
    39    33    34    1
    40    33    35    1
    41    34    36    1
    42    35    37    1
    43    37    43    1
    44    20    21   ar
    45    21    22   ar
@<TRIPOS>MOLECULE
*****
 43 45 0 0 0
SMALL
GASTEIGER

@<TRIPOS>ATOM
      1 P          20.9069   72.1020   -5.0434 P.3     1  UNL1        0.2189
      2 O          21.4511   70.9585   -4.0359 O.co2   1  UNL1       -0.4371
      3 O          19.6180   72.7498   -4.6297 O.2     1  UNL1       -0.5170
      4 O          20.8950   71.3734   -6.4880 O.3     1  UNL1       -0.3112
      5 C          20.0113   71.8579   -7.4824 C.3     1  UNL1        0.1811
      6 O          18.6766   69.8947   -7.1053 O.3     1  UNL1       -0.3308
      7 O          17.9900   70.0283  -10.0211 O.3     1  UNL1       -0.3794
      8 O          15.7772   71.0963   -8.8383 O.3     1  UNL1       -0.3779
      9 C          18.1954   71.0923   -9.0915 C.3     1  UNL1        0.1713
     10 C          17.0095   71.2087   -8.1576 C.3     1  UNL1        0.1895
     11 C          19.3099   70.6768   -8.1409 C.3     1  UNL1        0.1764
     12 C          17.2525   70.0593   -7.1944 C.3     1  UNL1        0.2383
     13 H          17.2821   70.2706  -10.6391 H       1  UNL1        0.2105
     14 H          15.6694   71.8512   -9.4387 H       1  UNL1        0.2106
     15 O          16.4971   68.0611   -5.3469 O.2     1  UNL1       -0.2464
     16 O          15.2601   71.1870   -2.1938 O.2     1  UNL1       -0.2670
     17 N          16.7300   70.3230   -5.8836 N.ar    1  UNL1       -0.2551
     18 N          15.8808   69.6199   -3.7786 N.ar    1  UNL1       -0.2743
     19 C          16.3809   69.2473   -5.0333 C.ar    1  UNL1        0.3323
     20 C          16.5696   71.6340   -5.4517 C.ar    1  UNL1        0.0869
     21 C          16.0918   71.9735   -4.2529 C.ar    1  UNL1        0.0795
     22 C          15.7026   70.9094   -3.3044 C.ar    1  UNL1        0.2626
     23 H          15.6290   68.8882   -3.1699 H       1  UNL1        0.1734
     24 O          22.1627   73.1134   -5.1569 O.3     1  UNL1       -0.2703
     25 P          23.0989   73.7752   -4.0171 P.3     1  UNL1        0.2208
     26 O          24.4796   72.9394   -4.1412 O.co2   1  UNL1       -0.4371
     27 O          22.4937   73.7692   -2.6431 O.2     1  UNL1       -0.5170
     28 O          23.4586   75.2421   -4.5837 O.3     1  UNL1       -0.2858
     29 O          25.5563   75.8914   -5.4710 O.3     1  UNL1       -0.3226
     30 O          24.0290   79.5100   -4.1901 O.3     1  UNL1       -0.3794
     31 O          23.7366   77.1136   -2.5450 O.3     1  UNL1       -0.3775
     32 O          24.0504   78.8558   -7.0225 O.3     1  UNL1       -0.3792
     33 C          23.9709   78.1820   -4.7106 C.3     1  UNL1        0.1718
     34 C          24.5689   77.2078   -3.6953 C.3     1  UNL1        0.1968
     35 C          24.7715   78.1497   -6.0145 C.3     1  UNL1        0.1723
     36 C          24.7348   75.8153   -4.3053 C.3     1  UNL1        0.2706
     37 C          25.0019   76.7187   -6.4914 C.3     1  UNL1        0.1830
     38 H          23.5270   79.5548   -3.3610 H       1  UNL1        0.2105
     39 H          23.6267   77.9938   -2.1530 H       1  UNL1        0.2106
     40 H          23.8971   79.7682   -6.7312 H       1  UNL1        0.2106
     41 O          25.7771   77.5910   -8.5260 O.co2   1  UNL1       -0.5466
     42 O          27.0103   75.9284   -7.5699 O.co2   1  UNL1       -0.5466
     43 C          26.0448   76.6772   -7.5605 C.2     1  UNL1        0.0799
@<TRIPOS>UNITY_ATOM_ATTR
2 1
charge -1
26 1
charge -1
41 1
charge -1
@<TRIPOS>BOND
     1     1     4    1
     2     1    24    1
     3     1     2    1
     4     1     3    2
     5    25    28    1
     6    25    24    1
     7    25    26    1
     8    25    27    2
     9     6    11    1
    10     6    12    1
    11    29    36    1
    12    29    37    1
    13     7     9    1
    14     7    13    1
    15     8    10    1
    16     8    14    1
    17     4     5    1
    18    28    36    1
    19    30    33    1
    20    30    38    1
    21    31    34    1
    22    31    39    1
    23    32    35    1
    24    32    40    1
    25    41    43   ar
    26    15    19    2
    27    42    43   ar
    28    16    22    2
    29    17    12    1
    30    17    19   ar
    31    17    20   ar
    32    18    19   ar
    33    18    22   ar
    34    18    23    1
    35     9    10    1
    36     9    11    1
    37    10    12    1
    38    11     5    1
    39    33    34    1
    40    33    35    1
    41    34    36    1
    42    35    37    1
    43    37    43    1
    44    20    21   ar
    45    21    22   ar
@<TRIPOS>MOLECULE
*****
 43 45 0 0 0
SMALL
GASTEIGER

@<TRIPOS>ATOM
      1 P          23.1269   72.1773   -3.7178 P.3     1  UNL1        0.2189
      2 O          23.7333   72.9201   -5.0214 O.co2   1  UNL1       -0.4371
      3 O          23.9897   71.0887   -3.1503 O.2     1  UNL1       -0.5170
      4 O          21.6433   71.7281   -4.1816 O.3     1  UNL1       -0.3112
      5 C          21.0311   70.6346   -3.5228 C.3     1  UNL1        0.1811
      6 O          19.0100   71.5848   -4.4119 O.3     1  UNL1       -0.3308
      7 O          17.5905   70.2020   -2.1615 O.3     1  UNL1       -0.3794
      8 O          17.1013   68.5528   -4.2774 O.3     1  UNL1       -0.3779
      9 C          18.7163   69.7656   -2.9235 C.3     1  UNL1        0.1713
     10 C          18.2775   69.3340   -4.3068 C.3     1  UNL1        0.1895
     11 C          19.5779   70.9835   -3.2281 C.3     1  UNL1        0.1764
     12 C          18.0759   70.6684   -5.0044 C.3     1  UNL1        0.2383
     13 H          17.0250   69.4409   -1.9547 H       1  UNL1        0.2105
     14 H          17.2816   67.7141   -3.8235 H       1  UNL1        0.2106
     15 O          16.1786   69.8266   -6.9196 O.2     1  UNL1       -0.2464
     16 O          19.1515   70.4164  -10.3920 O.2     1  UNL1       -0.2670
     17 N          18.3276   70.5925   -6.4157 N.ar    1  UNL1       -0.2551
     18 N          17.6614   70.1202   -8.6471 N.ar    1  UNL1       -0.2743
     19 C          17.3061   70.1565   -7.2923 C.ar    1  UNL1        0.3323
     20 C          19.5731   70.9489   -6.9182 C.ar    1  UNL1        0.0869
     21 C          19.8969   70.9092   -8.2122 C.ar    1  UNL1        0.0795
     22 C          18.8868   70.4641   -9.1946 C.ar    1  UNL1        0.2626
     23 H          16.9673   69.8179   -9.2765 H       1  UNL1        0.1734
     24 O          22.8355   73.4027   -2.7047 O.3     1  UNL1       -0.2703
     25 P          23.8284   74.4979   -2.0503 P.3     1  UNL1        0.2208
     26 O          22.8369   75.7239   -1.6840 O.co2   1  UNL1       -0.4371
     27 O          24.9868   74.8798   -2.9256 O.2     1  UNL1       -0.5170
     28 O          24.2455   73.8713   -0.6234 O.3     1  UNL1       -0.2858
     29 O          22.4865   73.4265    0.8988 O.3     1  UNL1       -0.3226
     30 O          25.8096   73.0763    3.3284 O.3     1  UNL1       -0.3794
     31 O          25.6298   75.2341    1.3672 O.3     1  UNL1       -0.3775
     32 O          24.4104   70.6964    2.4177 O.3     1  UNL1       -0.3792
     33 C          25.0722   72.9924    2.1089 C.3     1  UNL1        0.1718
     34 C          24.5517   74.3789    1.7291 C.3     1  UNL1        0.1968
     35 C          23.9050   72.0271    2.3274 C.3     1  UNL1        0.1723
     36 C          23.5698   74.2932    0.5598 C.3     1  UNL1        0.2706
     37 C          22.9053   72.0921    1.1764 C.3     1  UNL1        0.1830
     38 H          26.5567   73.6845    3.2135 H       1  UNL1        0.2105
     39 H          26.2569   75.2928    2.1046 H       1  UNL1        0.2106
     40 H          25.0481   70.6414    3.1466 H       1  UNL1        0.2106
     41 O          21.6078   70.1414    1.0631 O.co2   1  UNL1       -0.5466
     42 O          20.7229   71.9152    2.1900 O.co2   1  UNL1       -0.5466
     43 C          21.6282   71.4093    1.5438 C.2     1  UNL1        0.0799
@<TRIPOS>UNITY_ATOM_ATTR
2 1
charge -1
26 1
charge -1
41 1
charge -1
@<TRIPOS>BOND
     1     1     4    1
     2     1    24    1
     3     1     2    1
     4     1     3    2
     5    25    28    1
     6    25    24    1
     7    25    26    1
     8    25    27    2
     9     6    11    1
    10     6    12    1
    11    29    36    1
    12    29    37    1
    13     7     9    1
    14     7    13    1
    15     8    10    1
    16     8    14    1
    17     4     5    1
    18    28    36    1
    19    30    33    1
    20    30    38    1
    21    31    34    1
    22    31    39    1
    23    32    35    1
    24    32    40    1
    25    41    43   ar
    26    15    19    2
    27    42    43   ar
    28    16    22    2
    29    17    12    1
    30    17    19   ar
    31    17    20   ar
    32    18    19   ar
    33    18    22   ar
    34    18    23    1
    35     9    10    1
    36     9    11    1
    37    10    12    1
    38    11     5    1
    39    33    34    1
    40    33    35    1
    41    34    36    1
    42    35    37    1
    43    37    43    1
    44    20    21   ar
    45    21    22   ar
@<TRIPOS>MOLECULE
*****
 43 45 0 0 0
SMALL
GASTEIGER

@<TRIPOS>ATOM
      1 P          23.6282   73.2598   -3.7455 P.3     1  UNL1        0.2189
      2 O          22.5026   74.4170   -3.6318 O.co2   1  UNL1       -0.4371
      3 O          25.0120   73.7504   -4.0556 O.2     1  UNL1       -0.5170
      4 O          23.0008   72.2104   -4.8053 O.3     1  UNL1       -0.3112
      5 C          21.6115   72.2675   -5.0717 C.3     1  UNL1        0.1811
      6 O          20.5183   70.3932   -6.1059 O.3     1  UNL1       -0.3308
      7 O          20.7770   71.9025   -8.6839 O.3     1  UNL1       -0.3794
      8 O          18.1760   72.3436   -7.9936 O.3     1  UNL1       -0.3779
      9 C          20.5252   72.3973   -7.3685 C.3     1  UNL1        0.1713
     10 C          19.1009   72.0903   -6.9568 C.3     1  UNL1        0.1895
     11 C          21.3290   71.5545   -6.3878 C.3     1  UNL1        0.1764
     12 C          19.1872   70.6169   -6.5971 C.3     1  UNL1        0.2383
     13 H          20.2740   72.4255   -9.3282 H       1  UNL1        0.2105
     14 H          18.1578   73.2948   -8.1854 H       1  UNL1        0.2106
     15 O          16.5125   69.8613   -7.0989 O.2     1  UNL1       -0.2464
     16 O          15.6632   69.2108   -2.6157 O.2     1  UNL1       -0.2670
     17 N          18.2453   70.2452   -5.5795 N.ar    1  UNL1       -0.2551
     18 N          16.0918   69.5390   -4.8654 N.ar    1  UNL1       -0.2743
     19 C          16.9255   69.8823   -5.9379 C.ar    1  UNL1        0.3323
     20 C          18.6320   70.2408   -4.2448 C.ar    1  UNL1        0.0869
     21 C          17.8260   69.9111   -3.2336 C.ar    1  UNL1        0.0795
     22 C          16.4305   69.5203   -3.5221 C.ar    1  UNL1        0.2626
     23 H          15.1675   69.2848   -5.0900 H       1  UNL1        0.1734
     24 O          23.4903   72.4797   -2.3365 O.3     1  UNL1       -0.2703
     25 P          22.2658   72.3976   -1.2842 P.3     1  UNL1        0.2208
     26 O          21.8607   70.8306   -1.3096 O.co2   1  UNL1       -0.4371
     27 O          21.1318   73.3345   -1.5846 O.2     1  UNL1       -0.5170
     28 O          22.9514   72.6176    0.1595 O.3     1  UNL1       -0.2858
     29 O          24.5081   71.4413    1.5019 O.3     1  UNL1       -0.3226
     30 O          21.7123   72.6294    4.3019 O.3     1  UNL1       -0.3794
     31 O          20.8615   71.6161    1.6974 O.3     1  UNL1       -0.3775
     32 O          24.2710   73.9977    4.1230 O.3     1  UNL1       -0.3792
     33 C          22.4872   72.7359    3.1077 C.3     1  UNL1        0.1718
     34 C          22.1915   71.5434    2.1977 C.3     1  UNL1        0.1968
     35 C          23.9656   72.7501    3.5029 C.3     1  UNL1        0.1723
     36 C          23.1652   71.4997    1.0193 C.3     1  UNL1        0.2706
     37 C          24.8693   72.5763    2.2857 C.3     1  UNL1        0.1830
     38 H          20.7690   72.6185    4.0756 H       1  UNL1        0.2105
     39 H          20.2383   71.6444    2.4398 H       1  UNL1        0.2106
     40 H          23.7025   74.1208    4.8992 H       1  UNL1        0.2106
     41 O          26.5888   70.9841    2.3866 O.co2   1  UNL1       -0.5466
     42 O          27.0280   73.0459    3.2557 O.co2   1  UNL1       -0.5466
     43 C          26.2689   72.2630    2.7045 C.2     1  UNL1        0.0799
@<TRIPOS>UNITY_ATOM_ATTR
2 1
charge -1
26 1
charge -1
41 1
charge -1
@<TRIPOS>BOND
     1     1     4    1
     2     1    24    1
     3     1     2    1
     4     1     3    2
     5    25    28    1
     6    25    24    1
     7    25    26    1
     8    25    27    2
     9     6    11    1
    10     6    12    1
    11    29    36    1
    12    29    37    1
    13     7     9    1
    14     7    13    1
    15     8    10    1
    16     8    14    1
    17     4     5    1
    18    28    36    1
    19    30    33    1
    20    30    38    1
    21    31    34    1
    22    31    39    1
    23    32    35    1
    24    32    40    1
    25    41    43   ar
    26    15    19    2
    27    42    43   ar
    28    16    22    2
    29    17    12    1
    30    17    19   ar
    31    17    20   ar
    32    18    19   ar
    33    18    22   ar
    34    18    23    1
    35     9    10    1
    36     9    11    1
    37    10    12    1
    38    11     5    1
    39    33    34    1
    40    33    35    1
    41    34    36    1
    42    35    37    1
    43    37    43    1
    44    20    21   ar
    45    21    22   ar
@<TRIPOS>MOLECULE
*****
 43 45 0 0 0
SMALL
GASTEIGER

@<TRIPOS>ATOM
      1 P          21.2316   72.0709   -5.2395 P.3     1  UNL1        0.2189
      2 O          21.1110   70.7209   -4.3554 O.co2   1  UNL1       -0.4371
      3 O          20.2359   73.1412   -4.9007 O.2     1  UNL1       -0.5170
      4 O          21.1989   71.5391   -6.7673 O.3     1  UNL1       -0.3112
      5 C          20.1418   71.9630   -7.6083 C.3     1  UNL1        0.1811
      6 O          18.9256   69.9309   -7.1971 O.3     1  UNL1       -0.3308
      7 O          18.1817   70.0078  -10.1009 O.3     1  UNL1       -0.3794
      8 O          15.9337   70.9583   -8.8845 O.3     1  UNL1       -0.3779
      9 C          18.3437   71.0874   -9.1807 C.3     1  UNL1        0.1713
     10 C          17.1695   71.1434   -8.2265 C.3     1  UNL1        0.1895
     11 C          19.4960   70.7407   -8.2479 C.3     1  UNL1        0.1764
     12 C          17.4931   70.0154   -7.2617 C.3     1  UNL1        0.2383
     13 H          17.4507   70.2065  -10.7075 H       1  UNL1        0.2105
     14 H          15.7735   71.7023   -9.4868 H       1  UNL1        0.2106
     15 O          16.3084   68.0429   -5.6240 O.2     1  UNL1       -0.2464
     16 O          15.5582   71.0591   -2.2205 O.2     1  UNL1       -0.2670
     17 N          16.9797   70.2579   -5.9432 N.ar    1  UNL1       -0.2551
     18 N          15.9350   69.5472   -3.9308 N.ar    1  UNL1       -0.2743
     19 C          16.4039   69.1976   -5.2040 C.ar    1  UNL1        0.3323
     20 C          17.0507   71.5327   -5.3948 C.ar    1  UNL1        0.0869
     21 C          16.5995   71.8506   -4.1798 C.ar    1  UNL1        0.0795
     22 C          15.9828   70.8008   -3.3426 C.ar    1  UNL1        0.2626
     23 H          15.5280   68.8262   -3.3980 H       1  UNL1        0.1734
     24 O          22.7768   72.5003   -5.0372 O.3     1  UNL1       -0.2703
     25 P          23.4783   73.4519   -3.9345 P.3     1  UNL1        0.2208
     26 O          22.6903   74.8558   -4.1023 O.co2   1  UNL1       -0.4371
     27 O          24.9694   73.5592   -4.0730 O.2     1  UNL1       -0.5170
     28 O          22.9779   72.8712   -2.5150 O.3     1  UNL1       -0.2858
     29 O          20.7643   73.1709   -1.7281 O.3     1  UNL1       -0.3226
     30 O          22.8042   72.3880    1.7782 O.3     1  UNL1       -0.3794
     31 O          23.9615   74.1465   -0.2474 O.3     1  UNL1       -0.3775
     32 O          21.1342   70.3366    0.5724 O.3     1  UNL1       -0.3792
     33 C          22.5301   72.2910    0.3805 C.3     1  UNL1        0.1718
     34 C          22.6178   73.6784   -0.2557 C.3     1  UNL1        0.1968
     35 C          21.1213   71.7170    0.2136 C.3     1  UNL1        0.1723
     36 C          22.1084   73.6524   -1.6975 C.3     1  UNL1        0.2706
     37 C          20.6361   71.8419   -1.2277 C.3     1  UNL1        0.1830
     38 H          23.6946   72.7505    1.9088 H       1  UNL1        0.2105
     39 H          24.2913   74.1653    0.6644 H       1  UNL1        0.2106
     40 H          21.4414   70.2433    1.4877 H       1  UNL1        0.2106
     41 O          18.9190   70.2856   -1.5901 O.co2   1  UNL1       -0.5466
     42 O          18.2989   72.4375   -1.1617 O.co2   1  UNL1       -0.5466
     43 C          19.1659   71.5905   -1.3161 C.2     1  UNL1        0.0799
@<TRIPOS>UNITY_ATOM_ATTR
2 1
charge -1
26 1
charge -1
41 1
charge -1
@<TRIPOS>BOND
     1     1     4    1
     2     1    24    1
     3     1     2    1
     4     1     3    2
     5    25    28    1
     6    25    24    1
     7    25    26    1
     8    25    27    2
     9     6    11    1
    10     6    12    1
    11    29    36    1
    12    29    37    1
    13     7     9    1
    14     7    13    1
    15     8    10    1
    16     8    14    1
    17     4     5    1
    18    28    36    1
    19    30    33    1
    20    30    38    1
    21    31    34    1
    22    31    39    1
    23    32    35    1
    24    32    40    1
    25    41    43   ar
    26    15    19    2
    27    42    43   ar
    28    16    22    2
    29    17    12    1
    30    17    19   ar
    31    17    20   ar
    32    18    19   ar
    33    18    22   ar
    34    18    23    1
    35     9    10    1
    36     9    11    1
    37    10    12    1
    38    11     5    1
    39    33    34    1
    40    33    35    1
    41    34    36    1
    42    35    37    1
    43    37    43    1
    44    20    21   ar
    45    21    22   ar
@<TRIPOS>MOLECULE
*****
 43 45 0 0 0
SMALL
GASTEIGER

@<TRIPOS>ATOM
      1 P          23.4705   71.9736   -3.2565 P.3     1  UNL1        0.2189
      2 O          24.1618   72.9809   -4.3179 O.co2   1  UNL1       -0.4371
      3 O          24.1429   70.6391   -3.1192 O.2     1  UNL1       -0.5170
      4 O          21.9184   71.9348   -3.7119 O.3     1  UNL1       -0.3112
      5 C          21.5099   72.7544   -4.7916 C.3     1  UNL1        0.1811
      6 O          20.7482   70.6983   -5.7767 O.3     1  UNL1       -0.3308
      7 O          21.1830   72.0253   -8.4303 O.3     1  UNL1       -0.3794
      8 O          18.4845   72.2313   -8.0962 O.3     1  UNL1       -0.3779
      9 C          20.7179   72.5887   -7.2036 C.3     1  UNL1        0.1713
     10 C          19.2901   72.1605   -6.9383 C.3     1  UNL1        0.1895
     11 C          21.4694   71.9162   -6.0629 C.3     1  UNL1        0.1764
     12 C          19.4751   70.7371   -6.4406 C.3     1  UNL1        0.2383
     13 H          20.7171   72.4394   -9.1740 H       1  UNL1        0.2105
     14 H          18.3969   73.1574   -8.3730 H       1  UNL1        0.2106
     15 O          16.9343   69.7569   -7.1891 O.2     1  UNL1       -0.2464
     16 O          15.6305   69.2584   -2.7964 O.2     1  UNL1       -0.2670
     17 N          18.4525   70.3438   -5.5130 N.ar    1  UNL1       -0.2551
     18 N          16.2870   69.5105   -5.0006 N.ar    1  UNL1       -0.2743
     19 C          17.2106   69.8647   -5.9929 C.ar    1  UNL1        0.3323
     20 C          18.6848   70.4326   -4.1459 C.ar    1  UNL1        0.0869
     21 C          17.7947   70.0911   -3.2121 C.ar    1  UNL1        0.0795
     22 C          16.4719   69.5818   -3.6293 C.ar    1  UNL1        0.2626
     23 H          15.4143   69.1761   -5.3103 H       1  UNL1        0.1734
     24 O          23.4291   72.8496   -1.8987 O.3     1  UNL1       -0.2703
     25 P          23.8642   74.3794   -1.6089 P.3     1  UNL1        0.2208
     26 O          22.4562   75.1774   -1.6440 O.co2   1  UNL1       -0.4371
     27 O          24.9017   74.9141   -2.5532 O.2     1  UNL1       -0.5170
     28 O          24.3015   74.3934   -0.0561 O.3     1  UNL1       -0.2858
     29 O          22.3241   73.7501    1.0776 O.3     1  UNL1       -0.3226
     30 O          25.0753   73.8190    4.1589 O.3     1  UNL1       -0.3794
     31 O          25.0649   75.9263    2.1356 O.3     1  UNL1       -0.3775
     32 O          24.1872   71.2819    3.0521 O.3     1  UNL1       -0.3792
     33 C          24.6276   73.6387    2.8154 C.3     1  UNL1        0.1718
     34 C          24.0416   74.9499    2.2909 C.3     1  UNL1        0.1968
     35 C          23.5610   72.5414    2.8155 C.3     1  UNL1        0.1723
     36 C          23.3462   74.7387    0.9453 C.3     1  UNL1        0.2706
     37 C          22.8270   72.4778    1.4792 C.3     1  UNL1        0.1830
     38 H          25.7538   74.5121    4.1836 H       1  UNL1        0.2105
     39 H          25.5105   76.0650    2.9856 H       1  UNL1        0.2106
     40 H          24.6581   71.3090    3.8997 H       1  UNL1        0.2106
     41 O          21.8281   70.3750    1.1925 O.co2   1  UNL1       -0.5466
     42 O          20.5080   72.0533    1.9924 O.co2   1  UNL1       -0.5466
     43 C          21.5894   71.6485    1.5927 C.2     1  UNL1        0.0799
@<TRIPOS>UNITY_ATOM_ATTR
2 1
charge -1
26 1
charge -1
41 1
charge -1
@<TRIPOS>BOND
     1     1     4    1
     2     1    24    1
     3     1     2    1
     4     1     3    2
     5    25    28    1
     6    25    24    1
     7    25    26    1
     8    25    27    2
     9     6    11    1
    10     6    12    1
    11    29    36    1
    12    29    37    1
    13     7     9    1
    14     7    13    1
    15     8    10    1
    16     8    14    1
    17     4     5    1
    18    28    36    1
    19    30    33    1
    20    30    38    1
    21    31    34    1
    22    31    39    1
    23    32    35    1
    24    32    40    1
    25    41    43   ar
    26    15    19    2
    27    42    43   ar
    28    16    22    2
    29    17    12    1
    30    17    19   ar
    31    17    20   ar
    32    18    19   ar
    33    18    22   ar
    34    18    23    1
    35     9    10    1
    36     9    11    1
    37    10    12    1
    38    11     5    1
    39    33    34    1
    40    33    35    1
    41    34    36    1
    42    35    37    1
    43    37    43    1
    44    20    21   ar
    45    21    22   ar
@<TRIPOS>MOLECULE
*****
 43 45 0 0 0
SMALL
GASTEIGER

@<TRIPOS>ATOM
      1 P          20.9266   72.6473   -5.2325 P.3     1  UNL1        0.2189
      2 O          21.2864   71.6899   -3.9784 O.co2   1  UNL1       -0.4371
      3 O          19.7423   73.5452   -5.0248 O.2     1  UNL1       -0.5170
      4 O          20.8235   71.6264   -6.4836 O.3     1  UNL1       -0.3112
      5 C          20.0639   72.0158   -7.6131 C.3     1  UNL1        0.1811
      6 O          18.8914   69.9624   -7.1812 O.3     1  UNL1       -0.3308
      7 O          18.1248   70.0075  -10.0798 O.3     1  UNL1       -0.3794
      8 O          15.8674   70.9202   -8.8521 O.3     1  UNL1       -0.3779
      9 C          18.2720   71.0954   -9.1670 C.3     1  UNL1        0.1713
     10 C          17.1041   71.1338   -8.2044 C.3     1  UNL1        0.1895
     11 C          19.4379   70.7771   -8.2409 C.3     1  UNL1        0.1764
     12 C          17.4571   70.0180   -7.2356 C.3     1  UNL1        0.2383
     13 H          17.3855   70.1880  -10.6820 H       1  UNL1        0.2105
     14 H          15.6880   71.6574   -9.4574 H       1  UNL1        0.2106
     15 O          16.3422   68.0282   -5.5701 O.2     1  UNL1       -0.2464
     16 O          15.5380   71.0528   -2.1865 O.2     1  UNL1       -0.2670
     17 N          16.9487   70.2580   -5.9147 N.ar    1  UNL1       -0.2551
     18 N          15.9418   69.5367   -3.8869 N.ar    1  UNL1       -0.2743
     19 C          16.4091   69.1888   -5.1611 C.ar    1  UNL1        0.3323
     20 C          16.9890   71.5391   -5.3781 C.ar    1  UNL1        0.0869
     21 C          16.5398   71.8553   -4.1620 C.ar    1  UNL1        0.0795
     22 C          15.9598   70.7963   -3.3101 C.ar    1  UNL1        0.2626
     23 H          15.5597   68.8095   -3.3442 H       1  UNL1        0.1734
     24 O          22.3183   73.4216   -5.5090 O.3     1  UNL1       -0.2703
     25 P          22.8329   74.8803   -5.0389 P.3     1  UNL1        0.2208
     26 O          24.3801   74.6167   -4.6426 O.co2   1  UNL1       -0.4371
     27 O          22.0116   75.5003   -3.9458 O.2     1  UNL1       -0.5170
     28 O          22.9027   75.7472   -6.3976 O.3     1  UNL1       -0.2858
     29 O          24.7010   75.4629   -7.9124 O.3     1  UNL1       -0.3226
     30 O          23.1913   79.1276   -9.0780 O.3     1  UNL1       -0.3794
     31 O          23.4561   78.4686   -6.2443 O.3     1  UNL1       -0.3775
     32 O          22.6592   76.7561  -10.6730 O.3     1  UNL1       -0.3792
     33 C          23.1325   77.8009   -8.5542 C.3     1  UNL1        0.1718
     34 C          24.0120   77.7036   -7.3074 C.3     1  UNL1        0.1968
     35 C          23.6350   76.8425   -9.6362 C.3     1  UNL1        0.1723
     36 C          24.1574   76.2507   -6.8525 C.3     1  UNL1        0.2706
     37 C          23.8747   75.4442   -9.0743 C.3     1  UNL1        0.1830
     38 H          22.8766   79.7544   -8.4076 H       1  UNL1        0.2105
     39 H          23.3608   79.3916   -6.5261 H       1  UNL1        0.2106
     40 H          22.4973   77.6397  -11.0391 H       1  UNL1        0.2106
     41 O          25.2936   75.4020  -10.9415 O.co2   1  UNL1       -0.5466
     42 O          24.7400   73.3957  -10.0103 O.co2   1  UNL1       -0.5466
     43 C          24.6643   74.6150  -10.0341 C.2     1  UNL1        0.0799
@<TRIPOS>UNITY_ATOM_ATTR
2 1
charge -1
26 1
charge -1
41 1
charge -1
@<TRIPOS>BOND
     1     1     4    1
     2     1    24    1
     3     1     2    1
     4     1     3    2
     5    25    28    1
     6    25    24    1
     7    25    26    1
     8    25    27    2
     9     6    11    1
    10     6    12    1
    11    29    36    1
    12    29    37    1
    13     7     9    1
    14     7    13    1
    15     8    10    1
    16     8    14    1
    17     4     5    1
    18    28    36    1
    19    30    33    1
    20    30    38    1
    21    31    34    1
    22    31    39    1
    23    32    35    1
    24    32    40    1
    25    41    43   ar
    26    15    19    2
    27    42    43   ar
    28    16    22    2
    29    17    12    1
    30    17    19   ar
    31    17    20   ar
    32    18    19   ar
    33    18    22   ar
    34    18    23    1
    35     9    10    1
    36     9    11    1
    37    10    12    1
    38    11     5    1
    39    33    34    1
    40    33    35    1
    41    34    36    1
    42    35    37    1
    43    37    43    1
    44    20    21   ar
    45    21    22   ar
@<TRIPOS>MOLECULE
*****
 43 45 0 0 0
SMALL
GASTEIGER

@<TRIPOS>ATOM
      1 P          20.3979   73.1288   -1.1758 P.3     1  UNL1        0.2189
      2 O          18.8059   72.9373   -0.9571 O.co2   1  UNL1       -0.4371
      3 O          20.8274   74.5263   -1.5139 O.2     1  UNL1       -0.5170
      4 O          20.7798   71.9937   -2.2637 O.3     1  UNL1       -0.3112
      5 C          20.2289   72.0912   -3.5643 C.3     1  UNL1        0.1811
      6 O          20.7058   70.8131   -5.5434 O.3     1  UNL1       -0.3308
      7 O          23.1032   72.5820   -5.8828 O.3     1  UNL1       -0.3794
      8 O          21.3236   73.6437   -7.6555 O.3     1  UNL1       -0.3779
      9 C          21.8036   72.9064   -5.3887 C.3     1  UNL1        0.1713
     10 C          20.8090   72.9654   -6.5287 C.3     1  UNL1        0.1895
     11 C          21.2964   71.7171   -4.5846 C.3     1  UNL1        0.1764
     12 C          20.5520   71.4928   -6.7995 C.3     1  UNL1        0.2383
     13 H          23.4481   73.3271   -6.4001 H       1  UNL1        0.2105
     14 H          21.4699   74.5768   -7.4322 H       1  UNL1        0.2106
     15 O          19.9136   69.5313   -8.7286 O.2     1  UNL1       -0.2464
     16 O          15.4436   70.6528   -8.6557 O.2     1  UNL1       -0.2670
     17 N          19.2294   71.2508   -7.3025 N.ar    1  UNL1       -0.2551
     18 N          17.6880   70.0924   -8.6912 N.ar    1  UNL1       -0.2743
     19 C          19.0163   70.2414   -8.2709 C.ar    1  UNL1        0.3323
     20 C          18.1609   72.0070   -6.8362 C.ar    1  UNL1        0.0869
     21 C          16.9004   71.8533   -7.2462 C.ar    1  UNL1        0.0795
     22 C          16.5922   70.8207   -8.2573 C.ar    1  UNL1        0.2626
     23 H          17.5152   69.3972   -9.3666 H       1  UNL1        0.1734
     24 O          21.0253   72.5445    0.1945 O.3     1  UNL1       -0.2703
     25 P          22.1471   71.4084    0.4485 P.3     1  UNL1        0.2208
     26 O          22.8137   71.2134   -1.0137 O.co2   1  UNL1       -0.4371
     27 O          21.6159   70.1441    1.0595 O.2     1  UNL1       -0.5170
     28 O          23.2865   72.1460    1.3204 O.3     1  UNL1       -0.2858
     29 O          25.0481   71.8256    2.8706 O.3     1  UNL1       -0.3226
     30 O          22.4522   74.2071    5.0285 O.3     1  UNL1       -0.3794
     31 O          21.4342   72.0126    3.3909 O.3     1  UNL1       -0.3775
     32 O          24.8724   75.3459    3.8898 O.3     1  UNL1       -0.3792
     33 C          23.0991   73.7152    3.8549 C.3     1  UNL1        0.1718
     34 C          22.8077   72.2226    3.6975 C.3     1  UNL1        0.1968
     35 C          24.6032   73.9503    4.0102 C.3     1  UNL1        0.1723
     36 C          23.6647   71.6119    2.5878 C.3     1  UNL1        0.2706
     37 C          25.3968   73.2064    2.9400 C.3     1  UNL1        0.1830
     38 H          21.4949   74.0684    4.9526 H       1  UNL1        0.2105
     39 H          20.8845   72.3978    4.0908 H       1  UNL1        0.2106
     40 H          24.3731   75.8309    4.5653 H       1  UNL1        0.2106
     41 O          27.3406   74.4246    3.4291 O.co2   1  UNL1       -0.5466
     42 O          27.5108   72.1508    3.4281 O.co2   1  UNL1       -0.5466
     43 C          26.8495   73.1685    3.2872 C.2     1  UNL1        0.0799
@<TRIPOS>UNITY_ATOM_ATTR
2 1
charge -1
26 1
charge -1
41 1
charge -1
@<TRIPOS>BOND
     1     1     4    1
     2     1    24    1
     3     1     2    1
     4     1     3    2
     5    25    28    1
     6    25    24    1
     7    25    26    1
     8    25    27    2
     9     6    11    1
    10     6    12    1
    11    29    36    1
    12    29    37    1
    13     7     9    1
    14     7    13    1
    15     8    10    1
    16     8    14    1
    17     4     5    1
    18    28    36    1
    19    30    33    1
    20    30    38    1
    21    31    34    1
    22    31    39    1
    23    32    35    1
    24    32    40    1
    25    41    43   ar
    26    15    19    2
    27    42    43   ar
    28    16    22    2
    29    17    12    1
    30    17    19   ar
    31    17    20   ar
    32    18    19   ar
    33    18    22   ar
    34    18    23    1
    35     9    10    1
    36     9    11    1
    37    10    12    1
    38    11     5    1
    39    33    34    1
    40    33    35    1
    41    34    36    1
    42    35    37    1
    43    37    43    1
    44    20    21   ar
    45    21    22   ar
@<TRIPOS>MOLECULE
*****
 43 45 0 0 0
SMALL
GASTEIGER

@<TRIPOS>ATOM
      1 P          21.6609   71.5352   -3.0627 P.3     1  UNL1        0.2189
      2 O          21.3675   71.7386   -4.6411 O.co2   1  UNL1       -0.4371
      3 O          23.0252   71.0028   -2.7353 O.2     1  UNL1       -0.5170
      4 O          20.4153   70.6400   -2.5481 O.3     1  UNL1       -0.3112
      5 C          19.6496   69.9327   -3.5061 C.3     1  UNL1        0.1811
      6 O          18.0199   71.2491   -4.6846 O.3     1  UNL1       -0.3308
      7 O          15.9618   69.8881   -2.9807 O.3     1  UNL1       -0.3794
      8 O          15.7733   68.5328   -5.3394 O.3     1  UNL1       -0.3779
      9 C          17.1702   69.3630   -3.5307 C.3     1  UNL1        0.1713
     10 C          17.0116   69.1312   -5.0184 C.3     1  UNL1        0.1895
     11 C          18.2218   70.4633   -3.4900 C.3     1  UNL1        0.1764
     12 C          17.1416   70.5397   -5.5727 C.3     1  UNL1        0.2383
     13 H          15.2747   69.2030   -2.9960 H       1  UNL1        0.2105
     14 H          15.7397   67.6382   -4.9646 H       1  UNL1        0.2106
     15 O          15.6275   70.3153   -7.9462 O.2     1  UNL1       -0.2464
     16 O          19.3891   70.6254  -10.5915 O.2     1  UNL1       -0.2670
     17 N          17.6998   70.5588   -6.8952 N.ar    1  UNL1       -0.2551
     18 N          17.5025   70.4689   -9.2614 N.ar    1  UNL1       -0.2743
     19 C          16.8514   70.4388   -8.0212 C.ar    1  UNL1        0.3323
     20 C          19.0718   70.6967   -7.0670 C.ar    1  UNL1        0.0869
     21 C          19.6779   70.7239   -8.2555 C.ar    1  UNL1        0.0795
     22 C          18.8636   70.6036   -9.4827 C.ar    1  UNL1        0.2626
     23 H          16.9329   70.3850  -10.0600 H       1  UNL1        0.1734
     24 O          21.3408   72.9935   -2.4432 O.3     1  UNL1       -0.2703
     25 P          20.7462   73.4282   -1.0041 P.3     1  UNL1        0.2208
     26 O          19.3212   72.6623   -0.9460 O.co2   1  UNL1       -0.4371
     27 O          20.6593   74.9125   -0.7965 O.2     1  UNL1       -0.5170
     28 O          21.6681   72.6547    0.0703 O.3     1  UNL1       -0.2858
     29 O          22.8544   74.2103    1.4053 O.3     1  UNL1       -0.3226
     30 O          24.3468   70.6118    2.7806 O.3     1  UNL1       -0.3794
     31 O          23.9335   71.0478   -0.0783 O.3     1  UNL1       -0.3775
     32 O          22.4148   72.0930    4.3694 O.3     1  UNL1       -0.3792
     33 C          23.3632   71.4924    2.2376 C.3     1  UNL1        0.1718
     34 C          23.8659   72.0666    0.9128 C.3     1  UNL1        0.1968
     35 C          23.1248   72.6163    3.2485 C.3     1  UNL1        0.1723
     36 C          22.9467   73.1837    0.4168 C.3     1  UNL1        0.2706
     37 C          22.3058   73.7500    2.6383 C.3     1  UNL1        0.1830
     38 H          24.5148   69.8893    2.1553 H       1  UNL1        0.2105
     39 H          24.5149   70.3355    0.2299 H       1  UNL1        0.2106
     40 H          22.9254   71.3704    4.7669 H       1  UNL1        0.2106
     41 O          23.1627   75.9103    2.9551 O.co2   1  UNL1       -0.5466
     42 O          21.7581   75.1028    4.5596 O.co2   1  UNL1       -0.5466
     43 C          22.3575   74.9670    3.5035 C.2     1  UNL1        0.0799
@<TRIPOS>UNITY_ATOM_ATTR
2 1
charge -1
26 1
charge -1
41 1
charge -1
@<TRIPOS>BOND
     1     1     4    1
     2     1    24    1
     3     1     2    1
     4     1     3    2
     5    25    28    1
     6    25    24    1
     7    25    26    1
     8    25    27    2
     9     6    11    1
    10     6    12    1
    11    29    36    1
    12    29    37    1
    13     7     9    1
    14     7    13    1
    15     8    10    1
    16     8    14    1
    17     4     5    1
    18    28    36    1
    19    30    33    1
    20    30    38    1
    21    31    34    1
    22    31    39    1
    23    32    35    1
    24    32    40    1
    25    41    43   ar
    26    15    19    2
    27    42    43   ar
    28    16    22    2
    29    17    12    1
    30    17    19   ar
    31    17    20   ar
    32    18    19   ar
    33    18    22   ar
    34    18    23    1
    35     9    10    1
    36     9    11    1
    37    10    12    1
    38    11     5    1
    39    33    34    1
    40    33    35    1
    41    34    36    1
    42    35    37    1
    43    37    43    1
    44    20    21   ar
    45    21    22   ar
@<TRIPOS>MOLECULE
*****
 43 45 0 0 0
SMALL
GASTEIGER

@<TRIPOS>ATOM
      1 P          23.4623   72.2785   -3.4494 P.3     1  UNL1        0.2189
      2 O          24.0849   70.8123   -3.1640 O.co2   1  UNL1       -0.4371
      3 O          24.4408   73.2931   -3.9641 O.2     1  UNL1       -0.5170
      4 O          22.7170   72.6603   -2.0650 O.3     1  UNL1       -0.3112
      5 C          23.4901   72.7444   -0.8818 C.3     1  UNL1        0.1811
      6 O          24.5102   71.2450    0.6958 O.3     1  UNL1       -0.3308
      7 O          21.7469   70.1982    1.2053 O.3     1  UNL1       -0.3794
      8 O          22.1600   71.8509    3.3346 O.3     1  UNL1       -0.3779
      9 C          22.1701   71.5325    0.9241 C.3     1  UNL1        0.1713
     10 C          22.8513   72.1326    2.1357 C.3     1  UNL1        0.1895
     11 C          23.3120   71.4612   -0.0806 C.3     1  UNL1        0.1764
     12 C          24.2216   71.4789    2.0833 C.3     1  UNL1        0.2383
     13 H          21.0177   70.2180    1.8452 H       1  UNL1        0.2105
     14 H          21.2943   72.2894    3.3194 H       1  UNL1        0.2106
     15 O          26.9259   70.7119    2.3569 O.2     1  UNL1       -0.2464
     16 O          28.0749   74.7626    4.2320 O.2     1  UNL1       -0.2670
     17 N          25.2486   72.3135    2.6397 N.ar    1  UNL1       -0.2551
     18 N          27.4954   72.7297    3.2915 N.ar    1  UNL1       -0.2743
     19 C          26.5760   71.8325    2.7321 C.ar    1  UNL1        0.3323
     20 C          24.9375   73.5926    3.0847 C.ar    1  UNL1        0.0869
     21 C          25.8246   74.4364    3.6155 C.ar    1  UNL1        0.0795
     22 C          27.2335   74.0111    3.7488 C.ar    1  UNL1        0.2626
     23 H          28.4256   72.4165    3.3681 H       1  UNL1        0.1734
     24 O          22.2320   71.9619   -4.4490 O.3     1  UNL1       -0.2703
     25 P          21.6793   72.7642   -5.7391 P.3     1  UNL1        0.2208
     26 O          22.6375   72.2451   -6.9360 O.co2   1  UNL1       -0.4371
     27 O          21.6521   74.2559   -5.5715 O.2     1  UNL1       -0.5170
     28 O          20.2428   72.0992   -6.0501 O.3     1  UNL1       -0.2858
     29 O          19.4567   69.9391   -5.4798 O.3     1  UNL1       -0.3226
     30 O          17.3929   70.6878   -8.9795 O.3     1  UNL1       -0.3794
     31 O          20.2155   71.4031   -8.7428 O.3     1  UNL1       -0.3775
     32 O          16.0339   70.8716   -6.4163 O.3     1  UNL1       -0.3792
     33 C          18.0356   71.0206   -7.7490 C.3     1  UNL1        0.1718
     34 C          19.5042   70.5996   -7.8084 C.3     1  UNL1        0.1968
     35 C          17.3140   70.2773   -6.6226 C.3     1  UNL1        0.1723
     36 C          20.1661   70.7280   -6.4357 C.3     1  UNL1        0.2706
     37 C          18.1001   70.3466   -5.3165 C.3     1  UNL1        0.1830
     38 H          17.8346   71.1488   -9.7101 H       1  UNL1        0.2105
     39 H          19.8007   71.3266   -9.6160 H       1  UNL1        0.2106
     40 H          15.5234   70.8341   -7.2403 H       1  UNL1        0.2106
     41 O          16.4767   68.7288   -4.8177 O.co2   1  UNL1       -0.5466
     42 O          18.0525   69.1469   -3.2236 O.co2   1  UNL1       -0.5466
     43 C          17.5707   69.3613   -4.3259 C.2     1  UNL1        0.0799
@<TRIPOS>UNITY_ATOM_ATTR
2 1
charge -1
26 1
charge -1
41 1
charge -1
@<TRIPOS>BOND
     1     1     4    1
     2     1    24    1
     3     1     2    1
     4     1     3    2
     5    25    28    1
     6    25    24    1
     7    25    26    1
     8    25    27    2
     9     6    11    1
    10     6    12    1
    11    29    36    1
    12    29    37    1
    13     7     9    1
    14     7    13    1
    15     8    10    1
    16     8    14    1
    17     4     5    1
    18    28    36    1
    19    30    33    1
    20    30    38    1
    21    31    34    1
    22    31    39    1
    23    32    35    1
    24    32    40    1
    25    41    43   ar
    26    15    19    2
    27    42    43   ar
    28    16    22    2
    29    17    12    1
    30    17    19   ar
    31    17    20   ar
    32    18    19   ar
    33    18    22   ar
    34    18    23    1
    35     9    10    1
    36     9    11    1
    37    10    12    1
    38    11     5    1
    39    33    34    1
    40    33    35    1
    41    34    36    1
    42    35    37    1
    43    37    43    1
    44    20    21   ar
    45    21    22   ar
@<TRIPOS>MOLECULE
*****
 43 45 0 0 0
SMALL
GASTEIGER

@<TRIPOS>ATOM
      1 P          21.0955   72.1475   -5.3117 P.3     1  UNL1        0.2189
      2 O          20.8449   70.8394   -4.3925 O.co2   1  UNL1       -0.4371
      3 O          20.1479   73.2850   -5.0668 O.2     1  UNL1       -0.5170
      4 O          21.1173   71.5637   -6.8206 O.3     1  UNL1       -0.3112
      5 C          20.1021   71.9729   -7.7186 C.3     1  UNL1        0.1811
      6 O          18.9319   69.9271   -7.2464 O.3     1  UNL1       -0.3308
      7 O          18.0702   69.9749  -10.1181 O.3     1  UNL1       -0.3794
      8 O          15.8603   70.9024   -8.8174 O.3     1  UNL1       -0.3779
      9 C          18.2543   71.0626   -9.2117 C.3     1  UNL1        0.1713
     10 C          17.1190   71.1088   -8.2110 C.3     1  UNL1        0.1895
     11 C          19.4481   70.7377   -8.3243 C.3     1  UNL1        0.1764
     12 C          17.4969   69.9916   -7.2534 C.3     1  UNL1        0.2383
     13 H          17.3127   70.1596  -10.6957 H       1  UNL1        0.2105
     14 H          15.6655   71.6402   -9.4171 H       1  UNL1        0.2106
     15 O          16.2193   68.0645   -5.6316 O.2     1  UNL1       -0.2464
     16 O          15.7626   71.0389   -2.1405 O.2     1  UNL1       -0.2670
     17 N          17.0339   70.2356   -5.9167 N.ar    1  UNL1       -0.2551
     18 N          15.9921   69.5480   -3.8947 N.ar    1  UNL1       -0.2743
     19 C          16.4045   69.1991   -5.1875 C.ar    1  UNL1        0.3323
     20 C          17.2062   71.4884   -5.3408 C.ar    1  UNL1        0.0869
     21 C          16.8079   71.8060   -4.1074 C.ar    1  UNL1        0.0795
     22 C          16.1408   70.7803   -3.2790 C.ar    1  UNL1        0.2626
     23 H          15.5495   68.8435   -3.3684 H       1  UNL1        0.1734
     24 O          22.6496   72.4941   -5.0337 O.3     1  UNL1       -0.2703
     25 P          23.3367   73.5543   -4.0250 P.3     1  UNL1        0.2208
     26 O          22.7569   74.9776   -4.5333 O.co2   1  UNL1       -0.4371
     27 O          24.8354   73.4781   -3.9787 O.2     1  UNL1       -0.5170
     28 O          22.6094   73.3012   -2.6075 O.3     1  UNL1       -0.2858
     29 O          23.4530   73.6568   -0.4233 O.3     1  UNL1       -0.3226
     30 O          20.8589   70.4988    0.1813 O.3     1  UNL1       -0.3794
     31 O          22.6018   70.5557   -2.1625 O.3     1  UNL1       -0.3775
     32 O          20.1093   73.1823    1.0107 O.3     1  UNL1       -0.3792
     33 C          21.3341   71.6951   -0.4360 C.3     1  UNL1        0.1718
     34 C          22.7094   71.4408   -1.0536 C.3     1  UNL1        0.1968
     35 C          21.4263   72.7785    0.6409 C.3     1  UNL1        0.1723
     36 C          23.3497   72.7487   -1.5206 C.3     1  UNL1        0.2706
     37 C          22.1880   74.0011    0.1372 C.3     1  UNL1        0.1830
     38 H          20.7923   69.7959   -0.4841 H       1  UNL1        0.2105
     39 H          22.1960   69.7237   -1.8735 H       1  UNL1        0.2106
     40 H          19.6138   72.4132    1.3329 H       1  UNL1        0.2106
     41 O          23.0820   76.0625    0.8101 O.co2   1  UNL1       -0.5466
     42 O          22.4082   74.6344    2.4550 O.co2   1  UNL1       -0.5466
     43 C          22.5573   74.9004    1.2718 C.2     1  UNL1        0.0799
@<TRIPOS>UNITY_ATOM_ATTR
2 1
charge -1
26 1
charge -1
41 1
charge -1
@<TRIPOS>BOND
     1     1     4    1
     2     1    24    1
     3     1     2    1
     4     1     3    2
     5    25    28    1
     6    25    24    1
     7    25    26    1
     8    25    27    2
     9     6    11    1
    10     6    12    1
    11    29    36    1
    12    29    37    1
    13     7     9    1
    14     7    13    1
    15     8    10    1
    16     8    14    1
    17     4     5    1
    18    28    36    1
    19    30    33    1
    20    30    38    1
    21    31    34    1
    22    31    39    1
    23    32    35    1
    24    32    40    1
    25    41    43   ar
    26    15    19    2
    27    42    43   ar
    28    16    22    2
    29    17    12    1
    30    17    19   ar
    31    17    20   ar
    32    18    19   ar
    33    18    22   ar
    34    18    23    1
    35     9    10    1
    36     9    11    1
    37    10    12    1
    38    11     5    1
    39    33    34    1
    40    33    35    1
    41    34    36    1
    42    35    37    1
    43    37    43    1
    44    20    21   ar
    45    21    22   ar
@<TRIPOS>MOLECULE
*****
 43 45 0 0 0
SMALL
GASTEIGER

@<TRIPOS>ATOM
      1 P          21.8499   72.4801   -5.6763 P.3     1  UNL1        0.2189
      2 O          21.2036   73.9158   -5.3020 O.co2   1  UNL1       -0.4371
      3 O          23.0779   72.5431   -6.5364 O.2     1  UNL1       -0.5170
      4 O          20.6075   71.6418   -6.2859 O.3     1  UNL1       -0.3112
      5 C          20.1229   71.9888   -7.5701 C.3     1  UNL1        0.1811
      6 O          18.9175   69.9533   -7.1442 O.3     1  UNL1       -0.3308
      7 O          18.1349   70.0301  -10.0378 O.3     1  UNL1       -0.3794
      8 O          15.9008   70.9739   -8.7911 O.3     1  UNL1       -0.3779
      9 C          18.3063   71.1095   -9.1191 C.3     1  UNL1        0.1713
     10 C          17.1448   71.1619   -8.1493 C.3     1  UNL1        0.1895
     11 C          19.4718   70.7652   -8.2020 C.3     1  UNL1        0.1764
     12 C          17.4841   70.0340   -7.1897 C.3     1  UNL1        0.2383
     13 H          17.3954   70.2273  -10.6345 H       1  UNL1        0.2105
     14 H          15.7307   71.7179   -9.3907 H       1  UNL1        0.2106
     15 O          16.2957   68.0649   -5.5507 O.2     1  UNL1       -0.2464
     16 O          15.6151   71.0689   -2.1219 O.2     1  UNL1       -0.2670
     17 N          16.9876   70.2743   -5.8643 N.ar    1  UNL1       -0.2551
     18 N          15.9569   69.5632   -3.8449 N.ar    1  UNL1       -0.2743
     19 C          16.4082   69.2160   -5.1250 C.ar    1  UNL1        0.3323
     20 C          17.0784   71.5450   -5.3094 C.ar    1  UNL1        0.0869
     21 C          16.6439   71.8606   -4.0878 C.ar    1  UNL1        0.0795
     22 C          16.0248   70.8126   -3.2500 C.ar    1  UNL1        0.2626
     23 H          15.5479   68.8435   -3.3119 H       1  UNL1        0.1734
     24 O          22.0754   71.7954   -4.2296 O.3     1  UNL1       -0.2703
     25 P          23.2729   71.9542   -3.1552 P.3     1  UNL1        0.2208
     26 O          23.9699   73.3515   -3.5820 O.co2   1  UNL1       -0.4371
     27 O          24.2129   70.7848   -3.1033 O.2     1  UNL1       -0.5170
     28 O          22.5307   72.2789   -1.7601 O.3     1  UNL1       -0.2858
     29 O          23.0267   70.7029   -0.0632 O.3     1  UNL1       -0.3226
     30 O          20.0770   72.9710    1.7321 O.3     1  UNL1       -0.3794
     31 O          19.8380   72.1811   -1.0703 O.3     1  UNL1       -0.3775
     32 O          22.8584   73.3212    2.5016 O.3     1  UNL1       -0.3792
     33 C          21.1884   72.7246    0.8707 C.3     1  UNL1        0.1718
     34 C          20.8080   71.6665   -0.1654 C.3     1  UNL1        0.1968
     35 C          22.3538   72.2319    1.7315 C.3     1  UNL1        0.1723
     36 C          22.0345   71.2099   -0.9566 C.3     1  UNL1        0.2706
     37 C          23.4857   71.6768    0.8717 C.3     1  UNL1        0.1830
     38 H          19.3241   73.2851    1.2070 H       1  UNL1        0.2105
     39 H          19.0571   72.4730   -0.5749 H       1  UNL1        0.2106
     40 H          22.1477   73.6838    3.0533 H       1  UNL1        0.2106
     41 O          25.5493   70.5668    0.9775 O.co2   1  UNL1       -0.5466
     42 O          24.3004   70.6247    2.8843 O.co2   1  UNL1       -0.5466
     43 C          24.4579   70.9084    1.7063 C.2     1  UNL1        0.0799
@<TRIPOS>UNITY_ATOM_ATTR
2 1
charge -1
26 1
charge -1
41 1
charge -1
@<TRIPOS>BOND
     1     1     4    1
     2     1    24    1
     3     1     2    1
     4     1     3    2
     5    25    28    1
     6    25    24    1
     7    25    26    1
     8    25    27    2
     9     6    11    1
    10     6    12    1
    11    29    36    1
    12    29    37    1
    13     7     9    1
    14     7    13    1
    15     8    10    1
    16     8    14    1
    17     4     5    1
    18    28    36    1
    19    30    33    1
    20    30    38    1
    21    31    34    1
    22    31    39    1
    23    32    35    1
    24    32    40    1
    25    41    43   ar
    26    15    19    2
    27    42    43   ar
    28    16    22    2
    29    17    12    1
    30    17    19   ar
    31    17    20   ar
    32    18    19   ar
    33    18    22   ar
    34    18    23    1
    35     9    10    1
    36     9    11    1
    37    10    12    1
    38    11     5    1
    39    33    34    1
    40    33    35    1
    41    34    36    1
    42    35    37    1
    43    37    43    1
    44    20    21   ar
    45    21    22   ar
@<TRIPOS>MOLECULE
*****
 43 45 0 0 0
SMALL
GASTEIGER

@<TRIPOS>ATOM
      1 P          22.8467   71.0654    0.2814 P.3     1  UNL1        0.2189
      2 O          21.7677   70.1014    1.0062 O.co2   1  UNL1       -0.4371
      3 O          24.2821   70.6849    0.4974 O.2     1  UNL1       -0.5170
      4 O          22.4320   72.5505    0.7718 O.3     1  UNL1       -0.3112
      5 C          22.9590   73.0302    1.9952 C.3     1  UNL1        0.1811
      6 O          22.6796   72.7710    4.3685 O.3     1  UNL1       -0.3308
      7 O          19.7473   73.1624    3.8782 O.3     1  UNL1       -0.3794
      8 O          20.5316   75.6110    4.7869 O.3     1  UNL1       -0.3779
      9 C          20.8617   73.7742    3.2283 C.3     1  UNL1        0.1713
     10 C          21.4939   74.8090    4.1348 C.3     1  UNL1        0.1895
     11 C          21.9674   72.7337    3.1128 C.3     1  UNL1        0.1764
     12 C          22.2839   73.9420    5.1003 C.3     1  UNL1        0.2383
     13 H          19.0279   73.8081    3.9634 H       1  UNL1        0.2105
     14 H          20.0560   76.1439    4.1298 H       1  UNL1        0.2106
     15 O          23.4448   73.4515    7.6278 O.2     1  UNL1       -0.2464
     16 O          26.7904   76.5355    6.8927 O.2     1  UNL1       -0.2670
     17 N          23.4585   74.6027    5.5948 N.ar    1  UNL1       -0.2551
     18 N          25.1094   74.9887    7.2597 N.ar    1  UNL1       -0.2743
     19 C          23.9602   74.2835    6.8787 C.ar    1  UNL1        0.3323
     20 C          24.1015   75.5530    4.8110 C.ar    1  UNL1        0.0869
     21 C          25.1961   76.2169    5.1877 C.ar    1  UNL1        0.0795
     22 C          25.7839   75.9431    6.5155 C.ar    1  UNL1        0.2626
     23 H          25.4760   74.7850    8.1504 H       1  UNL1        0.1734
     24 O          22.3702   71.0465   -1.2631 O.3     1  UNL1       -0.2703
     25 P          23.0121   71.7296   -2.5803 P.3     1  UNL1        0.2208
     26 O          24.2768   70.7755   -2.9128 O.co2   1  UNL1       -0.4371
     27 O          23.3591   73.1808   -2.4145 O.2     1  UNL1       -0.5170
     28 O          21.9518   71.4250   -3.7573 O.3     1  UNL1       -0.2858
     29 O          21.1830   72.2271   -5.8489 O.3     1  UNL1       -0.3226
     30 O          17.6854   72.1193   -3.6528 O.3     1  UNL1       -0.3794
     31 O          20.1594   73.1027   -2.4501 O.3     1  UNL1       -0.3775
     32 O          18.2169   70.0764   -5.6515 O.3     1  UNL1       -0.3792
     33 C          18.9913   71.6967   -4.0453 C.3     1  UNL1        0.1718
     34 C          19.9835   72.8412   -3.8377 C.3     1  UNL1        0.1968
     35 C          18.9363   71.3013   -5.5226 C.3     1  UNL1        0.1723
     36 C          21.3411   72.5074   -4.4576 C.3     1  UNL1        0.2706
     37 C          20.3355   71.1083   -6.1001 C.3     1  UNL1        0.1830
     38 H          17.6959   72.3757   -2.7171 H       1  UNL1        0.2105
     39 H          19.3018   73.3150   -2.0503 H       1  UNL1        0.2106
     40 H          17.3245   70.1857   -5.2875 H       1  UNL1        0.2106
     41 O          21.1755   71.9237   -8.1326 O.co2   1  UNL1       -0.5466
     42 O          19.5608   70.3176   -8.2439 O.co2   1  UNL1       -0.5466
     43 C          20.2901   71.0501   -7.5923 C.2     1  UNL1        0.0799
@<TRIPOS>UNITY_ATOM_ATTR
2 1
charge -1
26 1
charge -1
41 1
charge -1
@<TRIPOS>BOND
     1     1     4    1
     2     1    24    1
     3     1     2    1
     4     1     3    2
     5    25    28    1
     6    25    24    1
     7    25    26    1
     8    25    27    2
     9     6    11    1
    10     6    12    1
    11    29    36    1
    12    29    37    1
    13     7     9    1
    14     7    13    1
    15     8    10    1
    16     8    14    1
    17     4     5    1
    18    28    36    1
    19    30    33    1
    20    30    38    1
    21    31    34    1
    22    31    39    1
    23    32    35    1
    24    32    40    1
    25    41    43   ar
    26    15    19    2
    27    42    43   ar
    28    16    22    2
    29    17    12    1
    30    17    19   ar
    31    17    20   ar
    32    18    19   ar
    33    18    22   ar
    34    18    23    1
    35     9    10    1
    36     9    11    1
    37    10    12    1
    38    11     5    1
    39    33    34    1
    40    33    35    1
    41    34    36    1
    42    35    37    1
    43    37    43    1
    44    20    21   ar
    45    21    22   ar
@<TRIPOS>MOLECULE
*****
 43 45 0 0 0
SMALL
GASTEIGER

@<TRIPOS>ATOM
      1 P          20.1946   75.3993   -3.6747 P.3     1  UNL1        0.2189
      2 O          21.6047   76.1933   -3.6692 O.co2   1  UNL1       -0.4371
      3 O          19.2070   75.8690   -4.7022 O.2     1  UNL1       -0.5170
      4 O          19.6989   75.4773   -2.1364 O.3     1  UNL1       -0.3112
      5 C          20.5348   74.9387   -1.1286 C.3     1  UNL1        0.1811
      6 O          20.1976   72.9862    0.2321 O.3     1  UNL1       -0.3308
      7 O          18.4955   74.7277    1.9819 O.3     1  UNL1       -0.3794
      8 O          20.8460   74.6147    3.3597 O.3     1  UNL1       -0.3779
      9 C          19.6877   75.0547    1.2676 C.3     1  UNL1        0.1713
     10 C          20.8937   74.4532    1.9574 C.3     1  UNL1        0.1895
     11 C          19.6662   74.2982   -0.0536 C.3     1  UNL1        0.1764
     12 C          20.8061   72.9970    1.5332 C.3     1  UNL1        0.2383
     13 H          18.4866   75.1993    2.8299 H       1  UNL1        0.2105
     14 H          20.9054   75.5583    3.5786 H       1  UNL1        0.2106
     15 O          21.2224   70.2799    0.8850 O.2     1  UNL1       -0.2464
     16 O          25.7976   70.7058    1.2461 O.2     1  UNL1       -0.2670
     17 N          22.0957   72.3717    1.4508 N.ar    1  UNL1       -0.2551
     18 N          23.5007   70.4943    1.0665 N.ar    1  UNL1       -0.2743
     19 C          22.1951   71.0002    1.1176 C.ar    1  UNL1        0.3323
     20 C          23.2438   73.1149    1.6967 C.ar    1  UNL1        0.0869
     21 C          24.4815   72.6188    1.6441 C.ar    1  UNL1        0.0795
     22 C          24.6729   71.1937    1.3037 C.ar    1  UNL1        0.2626
     23 H          23.5951   69.5412    0.8385 H       1  UNL1        0.1734
     24 O          20.6479   73.8558   -3.8325 O.3     1  UNL1       -0.2703
     25 P          19.7780   72.4941   -3.8847 P.3     1  UNL1        0.2208
     26 O          18.3892   72.9148   -3.1673 O.co2   1  UNL1       -0.4371
     27 O          20.4572   71.3055   -3.2684 O.2     1  UNL1       -0.5170
     28 O          19.3938   72.3132   -5.4410 O.3     1  UNL1       -0.2858
     29 O          18.8080   70.0218   -5.5652 O.3     1  UNL1       -0.3226
     30 O          17.7181   71.3725   -9.3143 O.3     1  UNL1       -0.3794
     31 O          20.2238   72.2495   -8.0949 O.3     1  UNL1       -0.3775
     32 O          15.6850   70.8522   -7.3027 O.3     1  UNL1       -0.3792
     33 C          17.9345   71.4687   -7.9065 C.3     1  UNL1        0.1718
     34 C          19.4066   71.1973   -7.5952 C.3     1  UNL1        0.1968
     35 C          17.0449   70.4303   -7.2192 C.3     1  UNL1        0.1723
     36 C          19.6317   71.0646   -6.0884 C.3     1  UNL1        0.2706
     37 C          17.4152   70.2659   -5.7481 C.3     1  UNL1        0.1830
     38 H          18.2732   72.0233   -9.7722 H       1  UNL1        0.2105
     39 H          20.0858   72.3395   -9.0506 H       1  UNL1        0.2106
     40 H          15.4367   70.9608   -8.2341 H       1  UNL1        0.2106
     41 O          17.2183   68.8218   -3.9103 O.co2   1  UNL1       -0.5466
     42 O          15.9785   68.3275   -5.7590 O.co2   1  UNL1       -0.5466
     43 C          16.7818   69.0398   -5.1755 C.2     1  UNL1        0.0799
@<TRIPOS>UNITY_ATOM_ATTR
2 1
charge -1
26 1
charge -1
41 1
charge -1
@<TRIPOS>BOND
     1     1     4    1
     2     1    24    1
     3     1     2    1
     4     1     3    2
     5    25    28    1
     6    25    24    1
     7    25    26    1
     8    25    27    2
     9     6    11    1
    10     6    12    1
    11    29    36    1
    12    29    37    1
    13     7     9    1
    14     7    13    1
    15     8    10    1
    16     8    14    1
    17     4     5    1
    18    28    36    1
    19    30    33    1
    20    30    38    1
    21    31    34    1
    22    31    39    1
    23    32    35    1
    24    32    40    1
    25    41    43   ar
    26    15    19    2
    27    42    43   ar
    28    16    22    2
    29    17    12    1
    30    17    19   ar
    31    17    20   ar
    32    18    19   ar
    33    18    22   ar
    34    18    23    1
    35     9    10    1
    36     9    11    1
    37    10    12    1
    38    11     5    1
    39    33    34    1
    40    33    35    1
    41    34    36    1
    42    35    37    1
    43    37    43    1
    44    20    21   ar
    45    21    22   ar
@<TRIPOS>MOLECULE
*****
 43 45 0 0 0
SMALL
GASTEIGER

@<TRIPOS>ATOM
      1 P          23.0433   72.9647   -4.7173 P.3     1  UNL1        0.2189
      2 O          24.0117   72.0235   -3.8257 O.co2   1  UNL1       -0.4371
      3 O          22.9770   72.6067   -6.1731 O.2     1  UNL1       -0.5170
      4 O          23.5474   74.4659   -4.3852 O.3     1  UNL1       -0.3112
      5 C          24.4716   74.6506   -3.3288 C.3     1  UNL1        0.1811
      6 O          22.8376   75.1942   -1.6519 O.3     1  UNL1       -0.3308
      7 O          24.6177   77.4964   -0.9292 O.3     1  UNL1       -0.3794
      8 O          25.1972   75.6648    1.0061 O.3     1  UNL1       -0.3779
      9 C          24.9707   76.1815   -1.3590 C.3     1  UNL1        0.1713
     10 C          24.7416   75.1857   -0.2419 C.3     1  UNL1        0.1895
     11 C          23.9494   75.7365   -2.3969 C.3     1  UNL1        0.1764
     12 C          23.2337   75.0058   -0.2840 C.3     1  UNL1        0.2383
     13 H          25.2562   77.8023   -0.2655 H       1  UNL1        0.2105
     14 H          26.1626   75.7622    0.9821 H       1  UNL1        0.2106
     15 O          22.6464   74.3145    2.3906 O.2     1  UNL1       -0.2464
     16 O          21.6779   69.9567    1.2436 O.2     1  UNL1       -0.2670
     17 N          22.8257   73.6978    0.1443 N.ar    1  UNL1       -0.2551
     18 N          22.1656   72.1445    1.8169 N.ar    1  UNL1       -0.2743
     19 C          22.5547   73.4554    1.5117 C.ar    1  UNL1        0.3323
     20 C          22.6960   72.6727   -0.7849 C.ar    1  UNL1        0.0869
     21 C          22.3240   71.4283   -0.4789 C.ar    1  UNL1        0.0795
     22 C          22.0231   71.0914    0.9280 C.ar    1  UNL1        0.2626
     23 H          21.9736   71.9511    2.7630 H       1  UNL1        0.1734
     24 O          21.6307   72.8747   -3.9368 O.3     1  UNL1       -0.2703
     25 P          20.5286   71.6938   -3.8695 P.3     1  UNL1        0.2208
     26 O          19.5025   72.2102   -2.7289 O.co2   1  UNL1       -0.4371
     27 O          21.1021   70.3301   -3.6138 O.2     1  UNL1       -0.5170
     28 O          19.7032   71.8251   -5.2493 O.3     1  UNL1       -0.2858
     29 O          18.6259   69.7487   -5.6195 O.3     1  UNL1       -0.3226
     30 O          17.3624   71.9450   -8.8827 O.3     1  UNL1       -0.3794
     31 O          20.1380   72.0921   -7.9835 O.3     1  UNL1       -0.3775
     32 O          15.5521   71.4606   -6.6603 O.3     1  UNL1       -0.3792
     33 C          17.7804   71.7389   -7.5333 C.3     1  UNL1        0.1718
     34 C          19.1873   71.1408   -7.5190 C.3     1  UNL1        0.1968
     35 C          16.7877   70.7803   -6.8718 C.3     1  UNL1        0.1723
     36 C          19.5776   70.6941   -6.1094 C.3     1  UNL1        0.2706
     37 C          17.3068   70.2819   -5.5262 C.3     1  UNL1        0.1830
     38 H          17.9785   72.5512   -9.3232 H       1  UNL1        0.2105
     39 H          19.8964   72.3802   -8.8774 H       1  UNL1        0.2106
     40 H          15.2110   71.7830   -7.5091 H       1  UNL1        0.2106
     41 O          16.5080   69.0556   -3.6933 O.co2   1  UNL1       -0.5466
     42 O          15.9247   68.3195   -5.7711 O.co2   1  UNL1       -0.5466
     43 C          16.5061   69.1146   -5.0481 C.2     1  UNL1        0.0799
@<TRIPOS>UNITY_ATOM_ATTR
2 1
charge -1
26 1
charge -1
41 1
charge -1
@<TRIPOS>BOND
     1     1     4    1
     2     1    24    1
     3     1     2    1
     4     1     3    2
     5    25    28    1
     6    25    24    1
     7    25    26    1
     8    25    27    2
     9     6    11    1
    10     6    12    1
    11    29    36    1
    12    29    37    1
    13     7     9    1
    14     7    13    1
    15     8    10    1
    16     8    14    1
    17     4     5    1
    18    28    36    1
    19    30    33    1
    20    30    38    1
    21    31    34    1
    22    31    39    1
    23    32    35    1
    24    32    40    1
    25    41    43   ar
    26    15    19    2
    27    42    43   ar
    28    16    22    2
    29    17    12    1
    30    17    19   ar
    31    17    20   ar
    32    18    19   ar
    33    18    22   ar
    34    18    23    1
    35     9    10    1
    36     9    11    1
    37    10    12    1
    38    11     5    1
    39    33    34    1
    40    33    35    1
    41    34    36    1
    42    35    37    1
    43    37    43    1
    44    20    21   ar
    45    21    22   ar
