@<TRIPOS>MOLECULE
UDP-glaA
 43 45 0 0 0
SMALL
GASTEIGER

@<TRIPOS>ATOM
      1 P          23.0022   71.5750   -2.9395 P.3     1  UNL1        0.2189
      2 O          23.7519   72.9511   -3.3416 O.3     1  UNL1       -0.4371
      3 O          23.8084   70.3281   -3.1569 O.2     1  UNL1       -0.5170
      4 O          21.5961   71.6505   -3.7350 O.3     1  UNL1       -0.3112
      5 C          20.6780   70.5801   -3.5911 C.3     1  UNL1        0.1811
      6 O          18.8985   71.7917   -4.6587 O.3     1  UNL1       -0.3308
      7 O          17.1168   70.7007   -2.5077 O.3     1  UNL1       -0.3794
      8 O          16.5534   69.0795   -4.6267 O.3     1  UNL1       -0.3779
      9 C          18.2204   70.0804   -3.1672 C.3     1  UNL1        0.1713
     10 C          17.8323   69.6772   -4.5742 C.3     1  UNL1        0.1895
     11 C          19.2762   71.1483   -3.4215 C.3     1  UNL1        0.1764
     12 C          17.8868   71.0054   -5.3096 C.3     1  UNL1        0.2383
     13 H          17.4232   70.9762   -1.6269 H       1  UNL1        0.2105
     14 H          16.5709   68.2993   -4.0461 H       1  UNL1        0.2106
     15 O          16.0255   70.5089   -7.3746 O.2     1  UNL1       -0.2464
     16 O          19.3312   70.4317  -10.5848 O.2     1  UNL1       -0.2670
     17 N          18.2332   70.8518   -6.6937 N.ar    1  UNL1       -0.2551
     18 N          17.6729   70.4703   -8.9717 N.ar    1  UNL1       -0.2743
     19 C          17.2225   70.6040   -7.6517 C.ar    1  UNL1        0.3323
     20 C          19.5626   70.9468   -7.0902 C.ar    1  UNL1        0.0869
     21 C          19.9759   70.8174   -8.3528 C.ar    1  UNL1        0.0795
     22 C          18.9837   70.5563   -9.4144 C.ar    1  UNL1        0.2626
     23 H          16.9636   70.2911   -9.6774 H       1  UNL1        0.1734
     24 O          22.5653   71.8356   -1.4044 O.3     1  UNL1       -0.2703
     25 P          22.3884   70.8139   -0.1644 P.3     1  UNL1        0.2208
     26 O          23.7240   69.9047   -0.2393 O.3     1  UNL1       -0.4371
     27 O          21.1052   70.0338   -0.1873 O.2     1  UNL1       -0.5170
     28 O          22.5897   71.7278    1.1502 O.3     1  UNL1       -0.2858
     29 O          21.8086   72.3583    3.2931 O.3     1  UNL1       -0.3226
     30 O          20.9502   75.7344    1.0249 O.3     1  UNL1       -0.3794
     31 O          20.5009   73.0656   -0.0621 O.3     1  UNL1       -0.3775
     32 O          20.9002   75.0504    3.7006 O.3     1  UNL1       -0.3792
     33 C          21.6541   74.5729    1.4559 C.3     1  UNL1        0.1718
     34 C          20.7717   73.3285    1.3106 C.3     1  UNL1        0.1968
     35 C          22.0634   74.7568    2.9199 C.3     1  UNL1        0.1723
     36 C          21.4549   72.1028    1.9298 C.3     1  UNL1        0.2706
     37 C          22.6934   73.4675    3.4424 C.3     1  UNL1        0.1830
     38 H          21.5444   76.4959    1.1367 H       1  UNL1        0.2105
     39 H          19.9492   72.2664   -0.1045 H       1  UNL1        0.2106
     40 H          20.3806   74.2347    3.7995 H       1  UNL1        0.2106
     41 O          22.0110   72.9660    5.6302 O.co2   1  UNL1       -0.5466
     42 O          23.9810   74.0875    5.3886 O.co2   1  UNL1       -0.5466
     43 C          22.9909   73.5577    4.9054 C.2     1  UNL1        0.0799
@<TRIPOS>UNITY_ATOM_ATTR
41 1
charge -1
@<TRIPOS>BOND
     1     1     4    1
     2     1    24    1
     3     1     2    1
     4     1     3    2
     5    25    28    1
     6    25    24    1
     7    25    26    1
     8    25    27    2
     9     6    11    1
    10     6    12    1
    11    29    36    1
    12    29    37    1
    13     7     9    1
    14     7    13    1
    15     8    10    1
    16     8    14    1
    17     4     5    1
    18    28    36    1
    19    30    33    1
    20    30    38    1
    21    31    34    1
    22    31    39    1
    23    32    35    1
    24    32    40    1
    25    41    43   ar
    26    15    19    2
    27    42    43   ar
    28    16    22    2
    29    17    12    1
    30    17    19   ar
    31    17    20   ar
    32    18    19   ar
    33    18    22   ar
    34    18    23    1
    35     9    10    1
    36     9    11    1
    37    10    12    1
    38    11     5    1
    39    33    34    1
    40    33    35    1
    41    34    36    1
    42    35    37    1
    43    37    43    1
    44    20    21   ar
    45    21    22   ar
@<TRIPOS>MOLECULE
UDP-glaA
 43 45 0 0 0
SMALL
GASTEIGER

@<TRIPOS>ATOM
      1 P          22.9067   72.1195   -3.5402 P.3     1  UNL1        0.2189
      2 O          23.0728   72.6344   -5.0649 O.3     1  UNL1       -0.4371
      3 O          23.5062   70.7730   -3.2581 O.2     1  UNL1       -0.5170
      4 O          21.3211   72.2572   -3.2529 O.3     1  UNL1       -0.3112
      5 C          20.5126   71.0967   -3.3461 C.3     1  UNL1        0.1811
      6 O          18.6531   72.0803   -4.5077 O.3     1  UNL1       -0.3308
      7 O          16.9182   70.8224   -2.4103 O.3     1  UNL1       -0.3794
      8 O          16.6341   69.1173   -4.5193 O.3     1  UNL1       -0.3779
      9 C          18.1124   70.3238   -3.0127 C.3     1  UNL1        0.1713
     10 C          17.8329   69.8587   -4.4263 C.3     1  UNL1        0.1895
     11 C          19.0490   71.5022   -3.2442 C.3     1  UNL1        0.1764
     12 C          17.7665   71.1738   -5.1840 C.3     1  UNL1        0.2383
     13 H          17.1534   71.1438   -1.5233 H       1  UNL1        0.2105
     14 H          16.7160   68.3526   -3.9237 H       1  UNL1        0.2106
     15 O          16.0799   70.3684   -7.3012 O.2     1  UNL1       -0.2464
     16 O          19.4886   70.6986  -10.3851 O.2     1  UNL1       -0.2670
     17 N          18.1866   71.0414   -6.5498 N.ar    1  UNL1       -0.2551
     18 N          17.7786   70.5328   -8.8354 N.ar    1  UNL1       -0.2743
     19 C          17.2611   70.6292   -7.5369 C.ar    1  UNL1        0.3323
     20 C          19.5034   71.3186   -6.9000 C.ar    1  UNL1        0.0869
     21 C          19.9813   71.2224   -8.1426 C.ar    1  UNL1        0.0795
     22 C          19.0802   70.7975   -9.2321 C.ar    1  UNL1        0.2626
     23 H          17.1312   70.2376   -9.5613 H       1  UNL1        0.1734
     24 O          23.5387   73.3324   -2.6773 O.3     1  UNL1       -0.2703
     25 P          22.8484   74.6368   -2.0181 P.3     1  UNL1        0.2208
     26 O          21.3385   74.5897   -2.5963 O.3     1  UNL1       -0.4371
     27 O          23.5763   75.9223   -2.2892 O.2     1  UNL1       -0.5170
     28 O          22.6980   74.2731   -0.4532 O.3     1  UNL1       -0.2858
     29 O          21.4863   72.3145    0.0902 O.3     1  UNL1       -0.3226
     30 O          21.7316   74.2355    3.7684 O.3     1  UNL1       -0.3794
     31 O          21.2056   75.7553    1.3353 O.3     1  UNL1       -0.3775
     32 O          20.8943   71.7703    2.8456 O.3     1  UNL1       -0.3792
     33 C          22.1281   73.8122    2.4668 C.3     1  UNL1        0.1718
     34 C          21.1463   74.3349    1.4127 C.3     1  UNL1        0.1968
     35 C          22.1663   72.2819    2.4340 C.3     1  UNL1        0.1723
     36 C          21.4651   73.7447    0.0334 C.3     1  UNL1        0.2706
     37 C          22.4502   71.8060    1.0110 C.3     1  UNL1        0.1830
     38 H          22.3784   73.8807    4.4019 H       1  UNL1        0.2105
     39 H          20.5763   76.0383    0.6508 H       1  UNL1        0.2106
     40 H          20.2567   71.9123    2.1256 H       1  UNL1        0.2106
     41 O          23.4835   69.7388    1.4144 O.co2   1  UNL1       -0.5466
     42 O          21.4276   69.6973    0.4304 O.co2   1  UNL1       -0.5466
     43 C          22.3685   70.3163    0.9056 C.2     1  UNL1        0.0799
@<TRIPOS>UNITY_ATOM_ATTR
41 1
charge -1
@<TRIPOS>BOND
     1     1     4    1
     2     1    24    1
     3     1     2    1
     4     1     3    2
     5    25    28    1
     6    25    24    1
     7    25    26    1
     8    25    27    2
     9     6    11    1
    10     6    12    1
    11    29    36    1
    12    29    37    1
    13     7     9    1
    14     7    13    1
    15     8    10    1
    16     8    14    1
    17     4     5    1
    18    28    36    1
    19    30    33    1
    20    30    38    1
    21    31    34    1
    22    31    39    1
    23    32    35    1
    24    32    40    1
    25    41    43   ar
    26    15    19    2
    27    42    43   ar
    28    16    22    2
    29    17    12    1
    30    17    19   ar
    31    17    20   ar
    32    18    19   ar
    33    18    22   ar
    34    18    23    1
    35     9    10    1
    36     9    11    1
    37    10    12    1
    38    11     5    1
    39    33    34    1
    40    33    35    1
    41    34    36    1
    42    35    37    1
    43    37    43    1
    44    20    21   ar
    45    21    22   ar
@<TRIPOS>MOLECULE
UDP-glaA
 43 45 0 0 0
SMALL
GASTEIGER

@<TRIPOS>ATOM
      1 P          21.8973   73.5990   -5.9281 P.3     1  UNL1        0.2189
      2 O          22.2502   75.1718   -5.7896 O.3     1  UNL1       -0.4371
      3 O          22.8162   72.8206   -6.8235 O.2     1  UNL1       -0.5170
      4 O          20.3341   73.5854   -6.3425 O.3     1  UNL1       -0.3112
      5 C          19.9280   74.3290   -7.4790 C.3     1  UNL1        0.1811
      6 O          19.6523   72.0181   -8.0773 O.3     1  UNL1       -0.3308
      7 O          17.9808   73.0032  -10.3636 O.3     1  UNL1       -0.3794
      8 O          16.1036   72.1966   -8.5577 O.3     1  UNL1       -0.3779
      9 C          18.0882   73.5170   -9.0361 C.3     1  UNL1        0.1713
     10 C          17.3591   72.6145   -8.0632 C.3     1  UNL1        0.1895
     11 C          19.5360   73.3641   -8.5890 C.3     1  UNL1        0.1764
     12 C          18.3378   71.4631   -7.9065 C.3     1  UNL1        0.2383
     13 H          18.4941   73.5906  -10.9441 H       1  UNL1        0.2105
     14 H          15.5777   72.9957   -8.7339 H       1  UNL1        0.2106
     15 O          16.1066   70.0047   -6.9734 O.2     1  UNL1       -0.2464
     16 O          18.1337   69.1407   -2.9258 O.2     1  UNL1       -0.2670
     17 N          18.2557   70.8459   -6.6135 N.ar    1  UNL1       -0.2551
     18 N          17.1173   69.5759   -4.9582 N.ar    1  UNL1       -0.2743
     19 C          17.0896   70.1368   -6.2419 C.ar    1  UNL1        0.3323
     20 C          19.3232   70.9467   -5.7283 C.ar    1  UNL1        0.0869
     21 C          19.3345   70.4059   -4.5080 C.ar    1  UNL1        0.0795
     22 C          18.1552   69.6496   -4.0423 C.ar    1  UNL1        0.2626
     23 H          16.2893   69.0619   -4.6694 H       1  UNL1        0.1734
     24 O          21.8699   73.0971   -4.3911 O.3     1  UNL1       -0.2703
     25 P          23.0619   72.6146   -3.4119 P.3     1  UNL1        0.2208
     26 O          24.3074   73.5456   -3.8568 O.3     1  UNL1       -0.4371
     27 O          23.3413   71.1397   -3.4620 O.2     1  UNL1       -0.5170
     28 O          22.6414   73.1643   -1.9541 O.3     1  UNL1       -0.2858
     29 O          21.7515   71.3953   -0.6587 O.3     1  UNL1       -0.3226
     30 O          21.2825   74.6543    1.8786 O.3     1  UNL1       -0.3794
     31 O          20.7377   74.9080   -0.9753 O.3     1  UNL1       -0.3775
     32 O          20.9954   71.9131    2.0614 O.3     1  UNL1       -0.3792
     33 C          21.8756   73.8279    0.8808 C.3     1  UNL1        0.1718
     34 C          20.9259   73.6632   -0.3105 C.3     1  UNL1        0.1968
     35 C          22.1899   72.4602    1.4932 C.3     1  UNL1        0.1723
     36 C          21.4806   72.6408   -1.3101 C.3     1  UNL1        0.2706
     37 C          22.6944   71.5146    0.4054 C.3     1  UNL1        0.1830
     38 H          21.9160   74.7287    2.6126 H       1  UNL1        0.2105
     39 H          20.1391   74.7526   -1.7252 H       1  UNL1        0.2106
     40 H          20.4174   71.6160    1.3383 H       1  UNL1        0.2106
     41 O          22.3122   69.2183    0.1138 O.co2   1  UNL1       -0.5466
     42 O          23.4932   69.8481    1.9592 O.co2   1  UNL1       -0.5466
     43 C          22.8913   70.1290    0.9330 C.2     1  UNL1        0.0799
@<TRIPOS>UNITY_ATOM_ATTR
41 1
charge -1
@<TRIPOS>BOND
     1     1     4    1
     2     1    24    1
     3     1     2    1
     4     1     3    2
     5    25    28    1
     6    25    24    1
     7    25    26    1
     8    25    27    2
     9     6    11    1
    10     6    12    1
    11    29    36    1
    12    29    37    1
    13     7     9    1
    14     7    13    1
    15     8    10    1
    16     8    14    1
    17     4     5    1
    18    28    36    1
    19    30    33    1
    20    30    38    1
    21    31    34    1
    22    31    39    1
    23    32    35    1
    24    32    40    1
    25    41    43   ar
    26    15    19    2
    27    42    43   ar
    28    16    22    2
    29    17    12    1
    30    17    19   ar
    31    17    20   ar
    32    18    19   ar
    33    18    22   ar
    34    18    23    1
    35     9    10    1
    36     9    11    1
    37    10    12    1
    38    11     5    1
    39    33    34    1
    40    33    35    1
    41    34    36    1
    42    35    37    1
    43    37    43    1
    44    20    21   ar
    45    21    22   ar
@<TRIPOS>MOLECULE
UDP-glaA
 43 45 0 0 0
SMALL
GASTEIGER

@<TRIPOS>ATOM
      1 P          22.8466   71.7564   -2.2657 P.3     1  UNL1        0.2189
      2 O          23.4944   73.2384   -2.3034 O.3     1  UNL1       -0.4371
      3 O          23.4367   70.7826   -3.2433 O.2     1  UNL1       -0.5170
      4 O          21.2578   72.0217   -2.4099 O.3     1  UNL1       -0.3112
      5 C          20.5693   71.4347   -3.5011 C.3     1  UNL1        0.1811
      6 O          18.6323   72.2117   -4.6920 O.3     1  UNL1       -0.3308
      7 O          17.0186   71.0654   -2.4397 O.3     1  UNL1       -0.3794
      8 O          16.7742   69.1615   -4.3765 O.3     1  UNL1       -0.3779
      9 C          18.2226   70.5748   -3.0291 C.3     1  UNL1        0.1713
     10 C          17.9337   69.9683   -4.3861 C.3     1  UNL1        0.1895
     11 C          19.0892   71.7731   -3.3936 C.3     1  UNL1        0.1764
     12 C          17.7788   71.2031   -5.2574 C.3     1  UNL1        0.2383
     13 H          17.2580   71.4785   -1.5926 H       1  UNL1        0.2105
     14 H          16.9112   68.4600   -3.7168 H       1  UNL1        0.2106
     15 O          16.0326   70.3159   -7.2919 O.2     1  UNL1       -0.2464
     16 O          19.3986   70.3299  -10.4398 O.2     1  UNL1       -0.2670
     17 N          18.1718   70.9673   -6.6173 N.ar    1  UNL1       -0.2551
     18 N          17.7100   70.3230   -8.8579 N.ar    1  UNL1       -0.2743
     19 C          17.2174   70.5217   -7.5614 C.ar    1  UNL1        0.3323
     20 C          19.4908   71.1773   -7.0040 C.ar    1  UNL1        0.0869
     21 C          19.9448   70.9838   -8.2443 C.ar    1  UNL1        0.0795
     22 C          19.0127   70.5180   -9.2901 C.ar    1  UNL1        0.2626
     23 H          17.0417   70.0021   -9.5533 H       1  UNL1        0.1734
     24 O          23.0044   71.3314   -0.7134 O.3     1  UNL1       -0.2703
     25 P          22.0742   70.4085    0.2330 P.3     1  UNL1        0.2208
     26 O          23.1481   69.5672    1.1019 O.3     1  UNL1       -0.4371
     27 O          21.0825   69.5633   -0.5139 O.2     1  UNL1       -0.5170
     28 O          21.4136   71.4378    1.2858 O.3     1  UNL1       -0.2858
     29 O          21.8826   73.7170    0.8562 O.3     1  UNL1       -0.3226
     30 O          20.1355   73.8824    4.6245 O.3     1  UNL1       -0.3794
     31 O          22.0241   71.7621    3.9587 O.3     1  UNL1       -0.3775
     32 O          20.9366   75.6992    2.7041 O.3     1  UNL1       -0.3792
     33 C          20.3796   73.4248    3.2973 C.3     1  UNL1        0.1718
     34 C          21.8215   72.9240    3.1614 C.3     1  UNL1        0.1968
     35 C          20.1317   74.5789    2.3221 C.3     1  UNL1        0.1723
     36 C          22.1453   72.5908    1.6997 C.3     1  UNL1        0.2706
     37 C          20.5243   74.1506    0.9098 C.3     1  UNL1        0.1830
     38 H          19.2144   74.1914    4.6635 H       1  UNL1        0.2105
     39 H          22.9450   71.4771    3.8333 H       1  UNL1        0.2106
     40 H          21.8608   75.5100    2.4690 H       1  UNL1        0.2106
     41 O          19.4884   75.0285   -1.0033 O.co2   1  UNL1       -0.5466
     42 O          21.0813   76.3158   -0.0021 O.co2   1  UNL1       -0.5466
     43 C          20.4211   75.2883   -0.0556 C.2     1  UNL1        0.0799
@<TRIPOS>UNITY_ATOM_ATTR
41 1
charge -1
@<TRIPOS>BOND
     1     1     4    1
     2     1    24    1
     3     1     2    1
     4     1     3    2
     5    25    28    1
     6    25    24    1
     7    25    26    1
     8    25    27    2
     9     6    11    1
    10     6    12    1
    11    29    36    1
    12    29    37    1
    13     7     9    1
    14     7    13    1
    15     8    10    1
    16     8    14    1
    17     4     5    1
    18    28    36    1
    19    30    33    1
    20    30    38    1
    21    31    34    1
    22    31    39    1
    23    32    35    1
    24    32    40    1
    25    41    43   ar
    26    15    19    2
    27    42    43   ar
    28    16    22    2
    29    17    12    1
    30    17    19   ar
    31    17    20   ar
    32    18    19   ar
    33    18    22   ar
    34    18    23    1
    35     9    10    1
    36     9    11    1
    37    10    12    1
    38    11     5    1
    39    33    34    1
    40    33    35    1
    41    34    36    1
    42    35    37    1
    43    37    43    1
    44    20    21   ar
    45    21    22   ar
@<TRIPOS>MOLECULE
UDP-glaA
 43 45 0 0 0
SMALL
GASTEIGER

@<TRIPOS>ATOM
      1 P          22.0245   70.4048   -0.3267 P.3     1  UNL1        0.2189
      2 O          20.8729   69.6172   -1.1457 O.3     1  UNL1       -0.4371
      3 O          23.1954   69.5624    0.0874 O.2     1  UNL1       -0.5170
      4 O          21.2210   71.1308    0.8746 O.3     1  UNL1       -0.3112
      5 C          21.6631   72.4044    1.3126 C.3     1  UNL1        0.1811
      6 O          23.1030   72.7060    3.2125 O.3     1  UNL1       -0.3308
      7 O          20.5972   73.0779    4.8169 O.3     1  UNL1       -0.3794
      8 O          21.4529   75.6404    4.4464 O.3     1  UNL1       -0.3779
      9 C          20.8814   73.4846    3.4785 C.3     1  UNL1        0.1713
     10 C          21.8148   74.6768    3.4788 C.3     1  UNL1        0.1895
     11 C          21.7417   72.4065    2.8326 C.3     1  UNL1        0.1764
     12 C          23.1561   74.0276    3.7744 C.3     1  UNL1        0.2383
     13 H          20.0295   72.2901    4.7661 H       1  UNL1        0.2105
     14 H          20.5437   75.9252    4.2500 H       1  UNL1        0.2106
     15 O          25.4827   74.8122    5.1696 O.2     1  UNL1       -0.2464
     16 O          27.2982   76.7668    1.4117 O.2     1  UNL1       -0.2670
     17 N          24.2525   74.7419    3.1854 N.ar    1  UNL1       -0.2551
     18 N          26.3850   75.7855    3.2975 N.ar    1  UNL1       -0.2743
     19 C          25.3744   75.0894    3.9738 C.ar    1  UNL1        0.3323
     20 C          24.2095   75.0913    1.8403 C.ar    1  UNL1        0.0869
     21 C          25.1814   75.7547    1.2100 C.ar    1  UNL1        0.0795
     22 C          26.3872   76.1555    1.9616 C.ar    1  UNL1        0.2626
     23 H          27.2010   76.0461    3.8447 H       1  UNL1        0.1734
     24 O          22.3934   71.6335   -1.3113 O.3     1  UNL1       -0.2703
     25 P          22.6614   71.6715   -2.9048 P.3     1  UNL1        0.2208
     26 O          23.6958   70.4497   -3.1364 O.3     1  UNL1       -0.4371
     27 O          23.1445   72.9983   -3.4167 O.2     1  UNL1       -0.5170
     28 O          21.2781   71.1661   -3.5643 O.3     1  UNL1       -0.2858
     29 O          20.0930   71.9811   -5.4433 O.3     1  UNL1       -0.3226
     30 O          17.0173   70.6519   -2.9832 O.3     1  UNL1       -0.3794
     31 O          19.3037   72.0725   -1.8606 O.3     1  UNL1       -0.3775
     32 O          17.2552   71.5719   -5.5768 O.3     1  UNL1       -0.3792
     33 C          18.3060   70.6868   -3.5901 C.3     1  UNL1        0.1718
     34 C          19.0197   72.0005   -3.2538 C.3     1  UNL1        0.1968
     35 C          18.1431   70.5524   -5.1066 C.3     1  UNL1        0.1723
     36 C          20.3315   72.1225   -4.0390 C.3     1  UNL1        0.2706
     37 C          19.4991   70.7300   -5.7862 C.3     1  UNL1        0.1830
     38 H          16.6023   69.8062   -3.2243 H       1  UNL1        0.2105
     39 H          19.7623   72.9139   -1.6977 H       1  UNL1        0.2106
     40 H          17.7249   72.4229   -5.5590 H       1  UNL1        0.2106
     41 O          18.0739   70.9006   -7.6418 O.co2   1  UNL1       -0.5466
     42 O          20.2958   70.6120   -8.0624 O.co2   1  UNL1       -0.5466
     43 C          19.3680   70.7355   -7.2760 C.2     1  UNL1        0.0799
@<TRIPOS>UNITY_ATOM_ATTR
41 1
charge -1
@<TRIPOS>BOND
     1     1     4    1
     2     1    24    1
     3     1     2    1
     4     1     3    2
     5    25    28    1
     6    25    24    1
     7    25    26    1
     8    25    27    2
     9     6    11    1
    10     6    12    1
    11    29    36    1
    12    29    37    1
    13     7     9    1
    14     7    13    1
    15     8    10    1
    16     8    14    1
    17     4     5    1
    18    28    36    1
    19    30    33    1
    20    30    38    1
    21    31    34    1
    22    31    39    1
    23    32    35    1
    24    32    40    1
    25    41    43   ar
    26    15    19    2
    27    42    43   ar
    28    16    22    2
    29    17    12    1
    30    17    19   ar
    31    17    20   ar
    32    18    19   ar
    33    18    22   ar
    34    18    23    1
    35     9    10    1
    36     9    11    1
    37    10    12    1
    38    11     5    1
    39    33    34    1
    40    33    35    1
    41    34    36    1
    42    35    37    1
    43    37    43    1
    44    20    21   ar
    45    21    22   ar
@<TRIPOS>MOLECULE
UDP-glaA
 43 45 0 0 0
SMALL
GASTEIGER

@<TRIPOS>ATOM
      1 P          22.1249   72.9104   -4.6109 P.3     1  UNL1        0.2189
      2 O          21.4283   74.1631   -3.8606 O.3     1  UNL1       -0.4371
      3 O          23.6192   72.8495   -4.4867 O.2     1  UNL1       -0.5170
      4 O          21.5476   72.9898   -6.1196 O.3     1  UNL1       -0.3112
      5 C          22.4672   73.1120   -7.1912 C.3     1  UNL1        0.1811
      6 O          20.7978   73.1314   -8.9195 O.3     1  UNL1       -0.3308
      7 O          21.0588   76.1183   -8.8793 O.3     1  UNL1       -0.3794
      8 O          18.7824   75.7000   -7.4376 O.3     1  UNL1       -0.3779
      9 C          21.1323   75.1906   -7.7968 C.3     1  UNL1        0.1713
     10 C          19.7514   74.6723   -7.4548 C.3     1  UNL1        0.1895
     11 C          21.8284   73.9336   -8.3019 C.3     1  UNL1        0.1764
     12 C          19.5103   73.6609   -8.5625 C.3     1  UNL1        0.2383
     13 H          21.9681   76.3925   -9.0881 H       1  UNL1        0.2105
     14 H          19.0663   76.3591   -6.7809 H       1  UNL1        0.2106
     15 O          18.9047   71.4020  -10.1456 O.2     1  UNL1       -0.2464
     16 O          16.2369   69.5846   -6.8564 O.2     1  UNL1       -0.2670
     17 N          18.6610   72.5823   -8.1448 N.ar    1  UNL1       -0.2551
     18 N          17.5762   70.4988   -8.5069 N.ar    1  UNL1       -0.2743
     19 C          18.4202   71.4944   -9.0162 C.ar    1  UNL1        0.3323
     20 C          18.0761   72.6091   -6.8836 C.ar    1  UNL1        0.0869
     21 C          17.2741   71.6518   -6.4124 C.ar    1  UNL1        0.0795
     22 C          16.9710   70.4815   -7.2598 C.ar    1  UNL1        0.2626
     23 H          17.3886   69.7073   -9.1163 H       1  UNL1        0.1734
     24 O          21.3450   71.6370   -3.9902 O.3     1  UNL1       -0.2703
     25 P          21.7921   70.5644   -2.8667 P.3     1  UNL1        0.2208
     26 O          23.3948   70.4687   -3.0620 O.3     1  UNL1       -0.4371
     27 O          21.0771   69.2465   -2.9541 O.2     1  UNL1       -0.5170
     28 O          21.5970   71.3368   -1.4634 O.3     1  UNL1       -0.2858
     29 O          23.2132   72.8297   -0.5923 O.3     1  UNL1       -0.3226
     30 O          21.0814   71.7689    2.8150 O.3     1  UNL1       -0.3794
     31 O          21.7501   69.7668    0.8025 O.3     1  UNL1       -0.3775
     32 O          23.0398   73.6055    2.1657 O.3     1  UNL1       -0.3792
     33 C          21.3196   72.0713    1.4431 C.3     1  UNL1        0.1718
     34 C          22.3144   71.0733    0.8408 C.3     1  UNL1        0.1968
     35 C          21.8767   73.4937    1.3390 C.3     1  UNL1        0.1723
     36 C          22.7084   71.4903   -0.5816 C.3     1  UNL1        0.2706
     37 C          22.2717   73.7856   -0.1070 C.3     1  UNL1        0.1830
     38 H          20.4498   72.4256    3.1547 H       1  UNL1        0.2105
     39 H          22.4104   69.1736    0.4062 H       1  UNL1        0.2106
     40 H          23.7721   73.1338    1.7340 H       1  UNL1        0.2106
     41 O          23.7901   75.1278   -1.2889 O.co2   1  UNL1       -0.5466
     42 O          22.7508   76.0709    0.5076 O.co2   1  UNL1       -0.5466
     43 C          22.9409   75.1173   -0.2333 C.2     1  UNL1        0.0799
@<TRIPOS>UNITY_ATOM_ATTR
41 1
charge -1
@<TRIPOS>BOND
     1     1     4    1
     2     1    24    1
     3     1     2    1
     4     1     3    2
     5    25    28    1
     6    25    24    1
     7    25    26    1
     8    25    27    2
     9     6    11    1
    10     6    12    1
    11    29    36    1
    12    29    37    1
    13     7     9    1
    14     7    13    1
    15     8    10    1
    16     8    14    1
    17     4     5    1
    18    28    36    1
    19    30    33    1
    20    30    38    1
    21    31    34    1
    22    31    39    1
    23    32    35    1
    24    32    40    1
    25    41    43   ar
    26    15    19    2
    27    42    43   ar
    28    16    22    2
    29    17    12    1
    30    17    19   ar
    31    17    20   ar
    32    18    19   ar
    33    18    22   ar
    34    18    23    1
    35     9    10    1
    36     9    11    1
    37    10    12    1
    38    11     5    1
    39    33    34    1
    40    33    35    1
    41    34    36    1
    42    35    37    1
    43    37    43    1
    44    20    21   ar
    45    21    22   ar
@<TRIPOS>MOLECULE
UDP-glaA
 43 45 0 0 0
SMALL
GASTEIGER

@<TRIPOS>ATOM
      1 P          22.1595   70.4203   -0.1951 P.3     1  UNL1        0.2189
      2 O          20.9703   69.7976   -1.0981 O.3     1  UNL1       -0.4371
      3 O          23.3103   69.4924    0.0633 O.2     1  UNL1       -0.5170
      4 O          21.3994   70.9800    1.1181 O.3     1  UNL1       -0.3112
      5 C          21.6073   72.3299    1.4974 C.3     1  UNL1        0.1811
      6 O          22.9485   72.7537    3.4457 O.3     1  UNL1       -0.3308
      7 O          20.3638   73.2061    4.8969 O.3     1  UNL1       -0.3794
      8 O          21.2293   75.7468    4.4160 O.3     1  UNL1       -0.3779
      9 C          20.7140   73.5334    3.5523 C.3     1  UNL1        0.1713
     10 C          21.6425   74.7292    3.5277 C.3     1  UNL1        0.1895
     11 C          21.6091   72.4237    3.0166 C.3     1  UNL1        0.1764
     12 C          22.9692   74.1070    3.9289 C.3     1  UNL1        0.2383
     13 H          19.8018   72.4132    4.8651 H       1  UNL1        0.2105
     14 H          20.3304   76.0138    4.1575 H       1  UNL1        0.2106
     15 O          25.4385   74.5044    5.2404 O.2     1  UNL1       -0.2464
     16 O          27.2059   76.7496    1.6246 O.2     1  UNL1       -0.2670
     17 N          24.0918   74.7913    3.3537 N.ar    1  UNL1       -0.2551
     18 N          26.3168   75.6226    3.4392 N.ar    1  UNL1       -0.2743
     19 C          25.2864   74.9379    4.0969 C.ar    1  UNL1        0.3323
     20 C          24.0026   75.3093    2.0664 C.ar    1  UNL1        0.0869
     21 C          24.9941   75.9592    1.4530 C.ar    1  UNL1        0.0795
     22 C          26.2750   76.1559    2.1603 C.ar    1  UNL1        0.2626
     23 H          27.1848   75.7404    3.9547 H       1  UNL1        0.1734
     24 O          22.5500   71.7720   -0.9924 O.3     1  UNL1       -0.2703
     25 P          22.7555   72.0497   -2.5713 P.3     1  UNL1        0.2208
     26 O          23.3292   70.6421   -3.1241 O.3     1  UNL1       -0.4371
     27 O          23.6223   73.2367   -2.8802 O.2     1  UNL1       -0.5170
     28 O          21.2592   72.1436   -3.1682 O.3     1  UNL1       -0.2858
     29 O          19.7258   70.6336   -4.1521 O.3     1  UNL1       -0.3226
     30 O          19.3045   73.9956   -6.5602 O.3     1  UNL1       -0.3794
     31 O          21.9416   73.1477   -5.6479 O.3     1  UNL1       -0.3775
     32 O          18.0187   71.5692   -6.2614 O.3     1  UNL1       -0.3792
     33 C          19.5281   73.2346   -5.3765 C.3     1  UNL1        0.1718
     34 C          20.7683   72.3490   -5.5367 C.3     1  UNL1        0.1968
     35 C          18.2961   72.3668   -5.1056 C.3     1  UNL1        0.1723
     36 C          20.9185   71.4027   -4.3391 C.3     1  UNL1        0.2706
     37 C          18.5711   71.4399   -3.9235 C.3     1  UNL1        0.1830
     38 H          18.5106   74.5379   -6.4148 H       1  UNL1        0.2105
     39 H          22.6992   72.5452   -5.7376 H       1  UNL1        0.2106
     40 H          18.6827   70.8611   -6.3147 H       1  UNL1        0.2106
     41 O          17.9129   69.2341   -3.4705 O.co2   1  UNL1       -0.5466
     42 O          16.2569   70.7796   -3.7276 O.co2   1  UNL1       -0.5466
     43 C          17.4427   70.4831   -3.7042 C.2     1  UNL1        0.0799
@<TRIPOS>UNITY_ATOM_ATTR
41 1
charge -1
@<TRIPOS>BOND
     1     1     4    1
     2     1    24    1
     3     1     2    1
     4     1     3    2
     5    25    28    1
     6    25    24    1
     7    25    26    1
     8    25    27    2
     9     6    11    1
    10     6    12    1
    11    29    36    1
    12    29    37    1
    13     7     9    1
    14     7    13    1
    15     8    10    1
    16     8    14    1
    17     4     5    1
    18    28    36    1
    19    30    33    1
    20    30    38    1
    21    31    34    1
    22    31    39    1
    23    32    35    1
    24    32    40    1
    25    41    43   ar
    26    15    19    2
    27    42    43   ar
    28    16    22    2
    29    17    12    1
    30    17    19   ar
    31    17    20   ar
    32    18    19   ar
    33    18    22   ar
    34    18    23    1
    35     9    10    1
    36     9    11    1
    37    10    12    1
    38    11     5    1
    39    33    34    1
    40    33    35    1
    41    34    36    1
    42    35    37    1
    43    37    43    1
    44    20    21   ar
    45    21    22   ar
@<TRIPOS>MOLECULE
UDP-glaA
 43 45 0 0 0
SMALL
GASTEIGER

@<TRIPOS>ATOM
      1 P          21.7340   70.9717   -1.1113 P.3     1  UNL1        0.2189
      2 O          23.2704   70.6093   -1.4658 O.3     1  UNL1       -0.4371
      3 O          20.8468   69.7881   -0.8582 O.2     1  UNL1       -0.5170
      4 O          21.2760   71.9486   -2.3160 O.3     1  UNL1       -0.3112
      5 C          20.5760   71.3881   -3.4138 C.3     1  UNL1        0.1811
      6 O          18.6712   72.2553   -4.5946 O.3     1  UNL1       -0.3308
      7 O          17.0073   71.0810   -2.3937 O.3     1  UNL1       -0.3794
      8 O          16.7294   69.2479   -4.3933 O.3     1  UNL1       -0.3779
      9 C          18.2030   70.5773   -2.9891 C.3     1  UNL1        0.1713
     10 C          17.9102   70.0229   -4.3673 C.3     1  UNL1        0.1895
     11 C          19.1046   71.7628   -3.3074 C.3     1  UNL1        0.1764
     12 C          17.7962   71.2889   -5.1993 C.3     1  UNL1        0.2383
     13 H          17.2501   71.4599   -1.5318 H       1  UNL1        0.2105
     14 H          16.8416   68.5219   -3.7556 H       1  UNL1        0.2106
     15 O          16.0722   70.3954   -7.2499 O.2     1  UNL1       -0.2464
     16 O          19.4371   70.5460  -10.3953 O.2     1  UNL1       -0.2670
     17 N          18.1949   71.0864   -6.5629 N.ar    1  UNL1       -0.2551
     18 N          17.7490   70.4705   -8.8147 N.ar    1  UNL1       -0.2743
     19 C          17.2517   70.6344   -7.5151 C.ar    1  UNL1        0.3323
     20 C          19.5085   71.3351   -6.9452 C.ar    1  UNL1        0.0869
     21 C          19.9671   71.1744   -8.1884 C.ar    1  UNL1        0.0795
     22 C          19.0467   70.7044   -9.2427 C.ar    1  UNL1        0.2626
     23 H          17.0887   70.1457   -9.5158 H       1  UNL1        0.1734
     24 O          21.8803   71.9839    0.1414 O.3     1  UNL1       -0.2703
     25 P          22.3626   73.5251    0.2084 P.3     1  UNL1        0.2208
     26 O          21.1173   74.3320   -0.4354 O.3     1  UNL1       -0.4371
     27 O          23.6825   73.7871   -0.4587 O.2     1  UNL1       -0.5170
     28 O          22.3233   73.8981    1.7779 O.3     1  UNL1       -0.2858
     29 O          23.8478   73.4849    3.5398 O.3     1  UNL1       -0.3226
     30 O          20.1793   73.1452    5.4648 O.3     1  UNL1       -0.3794
     31 O          20.5607   72.0326    2.7960 O.3     1  UNL1       -0.3775
     32 O          22.8374   73.2156    6.2128 O.3     1  UNL1       -0.3792
     33 C          21.1475   73.6247    4.5359 C.3     1  UNL1        0.1718
     34 C          21.6242   72.4876    3.6259 C.3     1  UNL1        0.1968
     35 C          22.3324   74.2065    5.3118 C.3     1  UNL1        0.1723
     36 C          22.7870   72.9519    2.7401 C.3     1  UNL1        0.2706
     37 C          23.4422   74.5960    4.3376 C.3     1  UNL1        0.1830
     38 H          19.9085   73.8960    6.0202 H       1  UNL1        0.2105
     39 H          20.9114   71.3220    2.2330 H       1  UNL1        0.2106
     40 H          23.3192   72.5465    5.6977 H       1  UNL1        0.2106
     41 O          24.3445   75.8543    6.1001 O.co2   1  UNL1       -0.5466
     42 O          25.8147   74.7377    4.7627 O.co2   1  UNL1       -0.5466
     43 C          24.6707   75.0491    5.0605 C.2     1  UNL1        0.0799
@<TRIPOS>UNITY_ATOM_ATTR
41 1
charge -1
@<TRIPOS>BOND
     1     1     4    1
     2     1    24    1
     3     1     2    1
     4     1     3    2
     5    25    28    1
     6    25    24    1
     7    25    26    1
     8    25    27    2
     9     6    11    1
    10     6    12    1
    11    29    36    1
    12    29    37    1
    13     7     9    1
    14     7    13    1
    15     8    10    1
    16     8    14    1
    17     4     5    1
    18    28    36    1
    19    30    33    1
    20    30    38    1
    21    31    34    1
    22    31    39    1
    23    32    35    1
    24    32    40    1
    25    41    43   ar
    26    15    19    2
    27    42    43   ar
    28    16    22    2
    29    17    12    1
    30    17    19   ar
    31    17    20   ar
    32    18    19   ar
    33    18    22   ar
    34    18    23    1
    35     9    10    1
    36     9    11    1
    37    10    12    1
    38    11     5    1
    39    33    34    1
    40    33    35    1
    41    34    36    1
    42    35    37    1
    43    37    43    1
    44    20    21   ar
    45    21    22   ar
@<TRIPOS>MOLECULE
UDP-glaA
 43 45 0 0 0
SMALL
GASTEIGER

@<TRIPOS>ATOM
      1 P          22.8268   71.8987   -3.0684 P.3     1  UNL1        0.2189
      2 O          23.6385   70.5090   -3.2333 O.3     1  UNL1       -0.4371
      3 O          22.6073   72.3392   -1.6507 O.2     1  UNL1       -0.5170
      4 O          21.4895   71.6760   -3.9503 O.3     1  UNL1       -0.3112
      5 C          20.6113   70.6217   -3.5947 C.3     1  UNL1        0.1811
      6 O          18.8324   71.8160   -4.6825 O.3     1  UNL1       -0.3308
      7 O          17.0395   70.7181   -2.5444 O.3     1  UNL1       -0.3794
      8 O          16.5081   69.0860   -4.6632 O.3     1  UNL1       -0.3779
      9 C          18.1538   70.1043   -3.1918 C.3     1  UNL1        0.1713
     10 C          17.7818   69.6937   -4.6009 C.3     1  UNL1        0.1895
     11 C          19.2036   71.1795   -3.4398 C.3     1  UNL1        0.1764
     12 C          17.8329   71.0199   -5.3401 C.3     1  UNL1        0.2383
     13 H          17.3356   70.9989   -1.6618 H       1  UNL1        0.2105
     14 H          16.5262   68.3078   -4.0799 H       1  UNL1        0.2106
     15 O          15.9970   70.4823   -7.4176 O.2     1  UNL1       -0.2464
     16 O          19.3300   70.4415  -10.6001 O.2     1  UNL1       -0.2670
     17 N          18.1932   70.8646   -6.7205 N.ar    1  UNL1       -0.2551
     18 N          17.6579   70.4618   -9.0009 N.ar    1  UNL1       -0.2743
     19 C          17.1945   70.5953   -7.6854 C.ar    1  UNL1        0.3323
     20 C          19.5241   70.9790   -7.1066 C.ar    1  UNL1        0.0869
     21 C          19.9499   70.8496   -8.3651 C.ar    1  UNL1        0.0795
     22 C          18.9709   70.5667   -9.4333 C.ar    1  UNL1        0.2626
     23 H          16.9576   70.2674   -9.7114 H       1  UNL1        0.1734
     24 O          23.6877   72.9302   -3.9685 O.3     1  UNL1       -0.2703
     25 P          23.4289   74.4808   -4.3440 P.3     1  UNL1        0.2208
     26 O          24.8810   75.1611   -4.1328 O.3     1  UNL1       -0.4371
     27 O          22.3217   75.1275   -3.5619 O.2     1  UNL1       -0.5170
     28 O          23.2055   74.4828   -5.9422 O.3     1  UNL1       -0.2858
     29 O          23.3081   76.7920   -6.4485 O.3     1  UNL1       -0.3226
     30 O          23.2665   75.0716  -10.2324 O.3     1  UNL1       -0.3794
     31 O          21.5590   74.0272   -8.1111 O.3     1  UNL1       -0.3775
     32 O          23.6469   77.5980   -9.1824 O.3     1  UNL1       -0.3792
     33 C          23.5530   75.2082   -8.8433 C.3     1  UNL1        0.1718
     34 C          22.2537   75.2675   -8.0330 C.3     1  UNL1        0.1968
     35 C          24.3633   76.4895   -8.6285 C.3     1  UNL1        0.1723
     36 C          22.5454   75.5860   -6.5613 C.3     1  UNL1        0.2706
     37 C          24.5584   76.7285   -7.1328 C.3     1  UNL1        0.1830
     38 H          24.1155   75.0408  -10.7054 H       1  UNL1        0.2105
     39 H          20.7510   74.1093   -7.5771 H       1  UNL1        0.2106
     40 H          22.8972   77.8041   -8.5987 H       1  UNL1        0.2106
     41 O          26.3758   77.8543   -6.1665 O.co2   1  UNL1       -0.5466
     42 O          24.8194   79.1264   -7.2419 O.co2   1  UNL1       -0.5466
     43 C          25.2333   78.0374   -6.8714 C.2     1  UNL1        0.0799
@<TRIPOS>UNITY_ATOM_ATTR
41 1
charge -1
@<TRIPOS>BOND
     1     1     4    1
     2     1    24    1
     3     1     2    1
     4     1     3    2
     5    25    28    1
     6    25    24    1
     7    25    26    1
     8    25    27    2
     9     6    11    1
    10     6    12    1
    11    29    36    1
    12    29    37    1
    13     7     9    1
    14     7    13    1
    15     8    10    1
    16     8    14    1
    17     4     5    1
    18    28    36    1
    19    30    33    1
    20    30    38    1
    21    31    34    1
    22    31    39    1
    23    32    35    1
    24    32    40    1
    25    41    43   ar
    26    15    19    2
    27    42    43   ar
    28    16    22    2
    29    17    12    1
    30    17    19   ar
    31    17    20   ar
    32    18    19   ar
    33    18    22   ar
    34    18    23    1
    35     9    10    1
    36     9    11    1
    37    10    12    1
    38    11     5    1
    39    33    34    1
    40    33    35    1
    41    34    36    1
    42    35    37    1
    43    37    43    1
    44    20    21   ar
    45    21    22   ar
@<TRIPOS>MOLECULE
UDP-glaA
 43 45 0 0 0
SMALL
GASTEIGER

@<TRIPOS>ATOM
      1 P          22.4951   72.9660   -2.6545 P.3     1  UNL1        0.2189
      2 O          22.9542   71.9756   -3.8485 O.3     1  UNL1       -0.4371
      3 O          23.2958   72.8476   -1.3908 O.2     1  UNL1       -0.5170
      4 O          20.9079   72.6915   -2.5092 O.3     1  UNL1       -0.3112
      5 C          20.2836   71.8193   -3.4358 C.3     1  UNL1        0.1811
      6 O          18.2942   72.4220   -4.6414 O.3     1  UNL1       -0.3308
      7 O          16.7754   71.0522   -2.4486 O.3     1  UNL1       -0.3794
      8 O          16.7617   69.1869   -4.4376 O.3     1  UNL1       -0.3779
      9 C          18.0331   70.7064   -3.0286 C.3     1  UNL1        0.1713
     10 C          17.8303   70.1103   -4.4056 C.3     1  UNL1        0.1895
     11 C          18.7747   71.9981   -3.3466 C.3     1  UNL1        0.1764
     12 C          17.5601   71.3455   -5.2477 C.3     1  UNL1        0.2383
     13 H          16.9572   71.4648   -1.5871 H       1  UNL1        0.2105
     14 H          16.9614   68.4857   -3.7937 H       1  UNL1        0.2106
     15 O          15.9963   70.2064   -7.3050 O.2     1  UNL1       -0.2464
     16 O          19.3393   70.7950  -10.4221 O.2     1  UNL1       -0.2670
     17 N          17.9964   71.1893   -6.6059 N.ar    1  UNL1       -0.2551
     18 N          17.6622   70.4998   -8.8557 N.ar    1  UNL1       -0.2743
     19 C          17.1341   70.6038   -7.5621 C.ar    1  UNL1        0.3323
     20 C          19.2669   71.6138   -6.9789 C.ar    1  UNL1        0.0869
     21 C          19.7556   71.5081   -8.2166 C.ar    1  UNL1        0.0795
     22 C          18.9193   70.9072   -9.2745 C.ar    1  UNL1        0.2626
     23 H          17.0600   70.0814   -9.5596 H       1  UNL1        0.1734
     24 O          22.5491   74.4239   -3.3521 O.3     1  UNL1       -0.2703
     25 P          23.7457   75.1840   -4.1286 P.3     1  UNL1        0.2208
     26 O          24.9802   74.1451   -4.0158 O.3     1  UNL1       -0.4371
     27 O          24.0435   76.5599   -3.6050 O.2     1  UNL1       -0.5170
     28 O          23.3164   75.1409   -5.6835 O.3     1  UNL1       -0.2858
     29 O          24.3107   76.0659   -7.6214 O.3     1  UNL1       -0.3226
     30 O          20.2567   76.4052   -8.4758 O.3     1  UNL1       -0.3794
     31 O          21.2596   76.9792   -5.7980 O.3     1  UNL1       -0.3775
     32 O          22.6309   76.7709   -9.8395 O.3     1  UNL1       -0.3792
     33 C          21.4550   75.8498   -7.9411 C.3     1  UNL1        0.1718
     34 C          22.0935   76.8194   -6.9408 C.3     1  UNL1        0.1968
     35 C          22.4264   75.5682   -9.0907 C.3     1  UNL1        0.1723
     36 C          23.4676   76.3082   -6.4902 C.3     1  UNL1        0.2706
     37 C          23.7684   75.1061   -8.5271 C.3     1  UNL1        0.1830
     38 H          19.8893   75.7603   -9.1040 H       1  UNL1        0.2105
     39 H          21.7080   77.5919   -5.1910 H       1  UNL1        0.2106
     40 H          23.1956   77.3668   -9.3187 H       1  UNL1        0.2106
     41 O          24.6171   73.7658  -10.2554 O.co2   1  UNL1       -0.5466
     42 O          25.6598   75.7578   -9.8791 O.co2   1  UNL1       -0.5466
     43 C          24.7891   74.9435   -9.6082 C.2     1  UNL1        0.0799
@<TRIPOS>UNITY_ATOM_ATTR
41 1
charge -1
@<TRIPOS>BOND
     1     1     4    1
     2     1    24    1
     3     1     2    1
     4     1     3    2
     5    25    28    1
     6    25    24    1
     7    25    26    1
     8    25    27    2
     9     6    11    1
    10     6    12    1
    11    29    36    1
    12    29    37    1
    13     7     9    1
    14     7    13    1
    15     8    10    1
    16     8    14    1
    17     4     5    1
    18    28    36    1
    19    30    33    1
    20    30    38    1
    21    31    34    1
    22    31    39    1
    23    32    35    1
    24    32    40    1
    25    41    43   ar
    26    15    19    2
    27    42    43   ar
    28    16    22    2
    29    17    12    1
    30    17    19   ar
    31    17    20   ar
    32    18    19   ar
    33    18    22   ar
    34    18    23    1
    35     9    10    1
    36     9    11    1
    37    10    12    1
    38    11     5    1
    39    33    34    1
    40    33    35    1
    41    34    36    1
    42    35    37    1
    43    37    43    1
    44    20    21   ar
    45    21    22   ar
@<TRIPOS>MOLECULE
UDP-glaA
 43 45 0 0 0
SMALL
GASTEIGER

@<TRIPOS>ATOM
      1 P          21.6229   73.4183   -5.7975 P.3     1  UNL1        0.2189
      2 O          21.0853   74.7986   -6.4480 O.3     1  UNL1       -0.4371
      3 O          22.5365   72.6171   -6.6782 O.2     1  UNL1       -0.5170
      4 O          20.2762   72.6658   -5.3121 O.3     1  UNL1       -0.3112
      5 C          20.3870   71.3596   -4.7729 C.3     1  UNL1        0.1811
      6 O          18.1967   72.0523   -4.0677 O.3     1  UNL1       -0.3308
      7 O          18.0880   69.4866   -2.5196 O.3     1  UNL1       -0.3794
      8 O          16.6001   68.9112   -4.7311 O.3     1  UNL1       -0.3779
      9 C          18.6799   69.7495   -3.7917 C.3     1  UNL1        0.1713
     10 C          17.6070   69.8948   -4.8501 C.3     1  UNL1        0.1895
     11 C          19.2789   71.1492   -3.7508 C.3     1  UNL1        0.1764
     12 C          17.0877   71.2973   -4.5829 C.3     1  UNL1        0.2383
     13 H          18.8089   69.4404   -1.8685 H       1  UNL1        0.2105
     14 H          17.0300   68.0418   -4.8052 H       1  UNL1        0.2106
     15 O          17.6732   70.4432   -7.2103 O.2     1  UNL1       -0.2464
     16 O          15.1589   73.8296   -9.0673 O.2     1  UNL1       -0.2670
     17 N          16.5991   71.9366   -5.7711 N.ar    1  UNL1       -0.2551
     18 N          16.4212   72.1303   -8.1332 N.ar    1  UNL1       -0.2743
     19 C          16.9529   71.4290   -7.0431 C.ar    1  UNL1        0.3323
     20 C          15.7786   73.0546   -5.6693 C.ar    1  UNL1        0.0869
     21 C          15.2793   73.7120   -6.7183 C.ar    1  UNL1        0.0795
     22 C          15.6014   73.2470   -8.0820 C.ar    1  UNL1        0.2626
     23 H          16.6628   71.7835   -9.0576 H       1  UNL1        0.1734
     24 O          22.2868   73.9078   -4.4065 O.3     1  UNL1       -0.2703
     25 P          23.3838   73.2047   -3.4500 P.3     1  UNL1        0.2208
     26 O          24.7418   74.0180   -3.7825 O.3     1  UNL1       -0.4371
     27 O          23.4928   71.7173   -3.6274 O.2     1  UNL1       -0.5170
     28 O          22.9837   73.6706   -1.9577 O.3     1  UNL1       -0.2858
     29 O          21.7228   71.8920   -1.0379 O.3     1  UNL1       -0.3226
     30 O          21.8929   74.5715    2.1356 O.3     1  UNL1       -0.3794
     31 O          21.4652   75.5249   -0.5873 O.3     1  UNL1       -0.3775
     32 O          21.0405   71.9726    1.7490 O.3     1  UNL1       -0.3792
     33 C          22.3201   73.8684    0.9722 C.3     1  UNL1        0.1718
     34 C          21.3790   74.1570   -0.2023 C.3     1  UNL1        0.1968
     35 C          22.3327   72.3680    1.2769 C.3     1  UNL1        0.1723
     36 C          21.7280   73.2749   -1.4075 C.3     1  UNL1        0.2706
     37 C          22.6502   71.5882    0.0029 C.3     1  UNL1        0.1830
     38 H          22.5144   74.3578    2.8522 H       1  UNL1        0.2105
     39 H          20.8613   75.6573   -1.3373 H       1  UNL1        0.2106
     40 H          20.4269   71.9596    0.9950 H       1  UNL1        0.2106
     41 O          23.7481   69.5153    0.0415 O.co2   1  UNL1       -0.5466
     42 O          21.5215   69.5201    0.5308 O.co2   1  UNL1       -0.5466
     43 C          22.5458   70.1127    0.2241 C.2     1  UNL1        0.0799
@<TRIPOS>UNITY_ATOM_ATTR
41 1
charge -1
@<TRIPOS>BOND
     1     1     4    1
     2     1    24    1
     3     1     2    1
     4     1     3    2
     5    25    28    1
     6    25    24    1
     7    25    26    1
     8    25    27    2
     9     6    11    1
    10     6    12    1
    11    29    36    1
    12    29    37    1
    13     7     9    1
    14     7    13    1
    15     8    10    1
    16     8    14    1
    17     4     5    1
    18    28    36    1
    19    30    33    1
    20    30    38    1
    21    31    34    1
    22    31    39    1
    23    32    35    1
    24    32    40    1
    25    41    43   ar
    26    15    19    2
    27    42    43   ar
    28    16    22    2
    29    17    12    1
    30    17    19   ar
    31    17    20   ar
    32    18    19   ar
    33    18    22   ar
    34    18    23    1
    35     9    10    1
    36     9    11    1
    37    10    12    1
    38    11     5    1
    39    33    34    1
    40    33    35    1
    41    34    36    1
    42    35    37    1
    43    37    43    1
    44    20    21   ar
    45    21    22   ar
@<TRIPOS>MOLECULE
UDP-glaA
 43 45 0 0 0
SMALL
GASTEIGER

@<TRIPOS>ATOM
      1 P          20.0402   70.9052   -4.1546 P.3     1  UNL1        0.2189
      2 O          20.6525   69.6204   -3.3853 O.3     1  UNL1       -0.4371
      3 O          18.8721   71.5544   -3.4718 O.2     1  UNL1       -0.5170
      4 O          19.7672   70.3674   -5.6552 O.3     1  UNL1       -0.3112
      5 C          19.7865   71.2995   -6.7229 C.3     1  UNL1        0.1811
      6 O          17.5030   71.2280   -7.4677 O.3     1  UNL1       -0.3308
      7 O          18.6041   70.5790  -10.1802 O.3     1  UNL1       -0.3794
      8 O          18.0210   73.2342  -10.3939 O.3     1  UNL1       -0.3779
      9 C          19.1301   71.4463   -9.1758 C.3     1  UNL1        0.1713
     10 C          18.3226   72.7255   -9.1110 C.3     1  UNL1        0.1895
     11 C          18.8439   70.8197   -7.8174 C.3     1  UNL1        0.1764
     12 C          17.0835   72.2788   -8.3539 C.3     1  UNL1        0.2383
     13 H          19.1269   69.7594  -10.1582 H       1  UNL1        0.2105
     14 H          18.8645   73.3918  -10.8520 H       1  UNL1        0.2106
     15 O          14.8459   73.8013   -9.1604 O.2     1  UNL1       -0.2464
     16 O          14.9408   76.3217   -5.3033 O.2     1  UNL1       -0.2670
     17 N          16.5023   73.3383   -7.5800 N.ar    1  UNL1       -0.2551
     18 N          14.8950   75.0557   -7.2394 N.ar    1  UNL1       -0.2743
     19 C          15.3798   74.0417   -8.0760 C.ar    1  UNL1        0.3323
     20 C          17.0443   73.6715   -6.3436 C.ar    1  UNL1        0.0869
     21 C          16.5703   74.6406   -5.5576 C.ar    1  UNL1        0.0795
     22 C          15.4005   75.4238   -6.0022 C.ar    1  UNL1        0.2626
     23 H          14.0887   75.5752   -7.5759 H       1  UNL1        0.1734
     24 O          21.3291   71.8639   -4.3413 O.3     1  UNL1       -0.2703
     25 P          22.7053   71.9661   -3.4998 P.3     1  UNL1        0.2208
     26 O          23.6312   72.9236   -4.4174 O.3     1  UNL1       -0.4371
     27 O          23.3242   70.6386   -3.1676 O.2     1  UNL1       -0.5170
     28 O          22.3327   72.8682   -2.2147 O.3     1  UNL1       -0.2858
     29 O          21.4853   71.2588   -0.7010 O.3     1  UNL1       -0.3226
     30 O          21.6898   74.6646    1.6733 O.3     1  UNL1       -0.3794
     31 O          20.7587   74.8353   -1.0853 O.3     1  UNL1       -0.3775
     32 O          21.1854   71.9768    2.0618 O.3     1  UNL1       -0.3792
     33 C          22.0533   73.7375    0.6541 C.3     1  UNL1        0.1718
     34 C          20.9285   73.6109   -0.3790 C.3     1  UNL1        0.1968
     35 C          22.3285   72.3761    1.2984 C.3     1  UNL1        0.1723
     36 C          21.2361   72.4926   -1.3825 C.3     1  UNL1        0.2706
     37 C          22.5807   71.3349    0.2100 C.3     1  UNL1        0.1830
     38 H          22.4280   74.7109    2.3046 H       1  UNL1        0.2105
     39 H          20.0452   74.7043   -1.7323 H       1  UNL1        0.2106
     40 H          20.4834   71.7041    1.4470 H       1  UNL1        0.2106
     41 O          23.4021   70.0078    1.9615 O.co2   1  UNL1       -0.5466
     42 O          22.2949   68.9384    0.2800 O.co2   1  UNL1       -0.5466
     43 C          22.7263   69.9632    0.7882 C.2     1  UNL1        0.0799
@<TRIPOS>UNITY_ATOM_ATTR
41 1
charge -1
@<TRIPOS>BOND
     1     1     4    1
     2     1    24    1
     3     1     2    1
     4     1     3    2
     5    25    28    1
     6    25    24    1
     7    25    26    1
     8    25    27    2
     9     6    11    1
    10     6    12    1
    11    29    36    1
    12    29    37    1
    13     7     9    1
    14     7    13    1
    15     8    10    1
    16     8    14    1
    17     4     5    1
    18    28    36    1
    19    30    33    1
    20    30    38    1
    21    31    34    1
    22    31    39    1
    23    32    35    1
    24    32    40    1
    25    41    43   ar
    26    15    19    2
    27    42    43   ar
    28    16    22    2
    29    17    12    1
    30    17    19   ar
    31    17    20   ar
    32    18    19   ar
    33    18    22   ar
    34    18    23    1
    35     9    10    1
    36     9    11    1
    37    10    12    1
    38    11     5    1
    39    33    34    1
    40    33    35    1
    41    34    36    1
    42    35    37    1
    43    37    43    1
    44    20    21   ar
    45    21    22   ar
@<TRIPOS>MOLECULE
UDP-glaA
 43 45 0 0 0
SMALL
GASTEIGER

@<TRIPOS>ATOM
      1 P          22.5036   73.0797   -4.6176 P.3     1  UNL1        0.2189
      2 O          22.6731   73.8209   -6.0456 O.3     1  UNL1       -0.4371
      3 O          23.7631   72.4839   -4.0602 O.2     1  UNL1       -0.5170
      4 O          21.2832   72.0459   -4.8576 O.3     1  UNL1       -0.3112
      5 C          20.7527   71.3530   -3.7406 C.3     1  UNL1        0.1811
      6 O          18.7924   72.1979   -4.8440 O.3     1  UNL1       -0.3308
      7 O          17.2398   71.0833   -2.5334 O.3     1  UNL1       -0.3794
      8 O          16.8564   69.2031   -4.4709 O.3     1  UNL1       -0.3779
      9 C          18.4025   70.5611   -3.1762 C.3     1  UNL1        0.1713
     10 C          18.0388   69.9743   -4.5238 C.3     1  UNL1        0.1895
     11 C          19.2895   71.7353   -3.5688 C.3     1  UNL1        0.1764
     12 C          17.8856   71.2201   -5.3796 C.3     1  UNL1        0.2383
     13 H          17.5271   71.4822   -1.6944 H       1  UNL1        0.2105
     14 H          16.9993   68.4925   -3.8222 H       1  UNL1        0.2106
     15 O          16.0289   70.4054   -7.3454 O.2     1  UNL1       -0.2464
     16 O          19.2598   70.3391  -10.6311 O.2     1  UNL1       -0.2670
     17 N          18.2140   70.9832   -6.7564 N.ar    1  UNL1       -0.2551
     18 N          17.6391   70.3724   -8.9802 N.ar    1  UNL1       -0.2743
     19 C          17.2074   70.5758   -7.6628 C.ar    1  UNL1        0.3323
     20 C          19.5218   71.1547   -7.1964 C.ar    1  UNL1        0.0869
     21 C          19.9174   70.9572   -8.4559 C.ar    1  UNL1        0.0795
     22 C          18.9282   70.5297   -9.4650 C.ar    1  UNL1        0.2626
     23 H          16.9325   70.0785   -9.6491 H       1  UNL1        0.1734
     24 O          21.8332   74.2243   -3.6925 O.3     1  UNL1       -0.2703
     25 P          22.1831   74.7152   -2.1928 P.3     1  UNL1        0.2208
     26 O          20.9595   75.7099   -1.8330 O.3     1  UNL1       -0.4371
     27 O          23.5455   75.3307   -2.0483 O.2     1  UNL1       -0.5170
     28 O          21.9376   73.4150   -1.2692 O.3     1  UNL1       -0.2858
     29 O          22.8890   73.5451    0.8935 O.3     1  UNL1       -0.3226
     30 O          21.7521   69.5524    0.6810 O.3     1  UNL1       -0.3794
     31 O          22.9584   70.8741   -1.6221 O.3     1  UNL1       -0.3775
     32 O          22.7113   71.2634    2.6258 O.3     1  UNL1       -0.3792
     33 C          21.6982   70.9581    0.4543 C.3     1  UNL1        0.1718
     34 C          22.9424   71.4245   -0.3092 C.3     1  UNL1        0.1968
     35 C          21.6132   71.6746    1.8048 C.3     1  UNL1        0.1723
     36 C          22.9776   72.9547   -0.4074 C.3     1  UNL1        0.2706
     37 C          21.6978   73.1843    1.5910 C.3     1  UNL1        0.1830
     38 H          20.9483   69.3027    1.1678 H       1  UNL1        0.2105
     39 H          23.7564   71.2037   -2.0687 H       1  UNL1        0.2106
     40 H          23.5213   71.6847    2.2919 H       1  UNL1        0.2106
     41 O          21.9176   75.2476    2.6857 O.co2   1  UNL1       -0.5466
     42 O          21.6499   73.4009    3.9953 O.co2   1  UNL1       -0.5466
     43 C          21.7490   73.9193    2.8926 C.2     1  UNL1        0.0799
@<TRIPOS>UNITY_ATOM_ATTR
41 1
charge -1
@<TRIPOS>BOND
     1     1     4    1
     2     1    24    1
     3     1     2    1
     4     1     3    2
     5    25    28    1
     6    25    24    1
     7    25    26    1
     8    25    27    2
     9     6    11    1
    10     6    12    1
    11    29    36    1
    12    29    37    1
    13     7     9    1
    14     7    13    1
    15     8    10    1
    16     8    14    1
    17     4     5    1
    18    28    36    1
    19    30    33    1
    20    30    38    1
    21    31    34    1
    22    31    39    1
    23    32    35    1
    24    32    40    1
    25    41    43   ar
    26    15    19    2
    27    42    43   ar
    28    16    22    2
    29    17    12    1
    30    17    19   ar
    31    17    20   ar
    32    18    19   ar
    33    18    22   ar
    34    18    23    1
    35     9    10    1
    36     9    11    1
    37    10    12    1
    38    11     5    1
    39    33    34    1
    40    33    35    1
    41    34    36    1
    42    35    37    1
    43    37    43    1
    44    20    21   ar
    45    21    22   ar
@<TRIPOS>MOLECULE
UDP-glaA
 43 45 0 0 0
SMALL
GASTEIGER

@<TRIPOS>ATOM
      1 P          19.7580   71.1097   -4.2667 P.3     1  UNL1        0.2189
      2 O          19.5845   69.5038   -4.1764 O.3     1  UNL1       -0.4371
      3 O          18.7524   71.9002   -3.4818 O.2     1  UNL1       -0.5170
      4 O          19.8015   71.4083   -5.8556 O.3     1  UNL1       -0.3112
      5 C          18.7056   70.9932   -6.6531 C.3     1  UNL1        0.1811
      6 O          18.7392   73.3701   -7.0046 O.3     1  UNL1       -0.3308
      7 O          16.1663   72.9972   -8.4986 O.3     1  UNL1       -0.3794
      8 O          17.9950   73.2215  -10.5089 O.3     1  UNL1       -0.3779
      9 C          17.3088   72.1435   -8.4406 C.3     1  UNL1        0.1713
     10 C          18.4396   72.7228   -9.2642 C.3     1  UNL1        0.1895
     11 C          17.8753   72.2124   -7.0285 C.3     1  UNL1        0.1764
     12 C          18.9669   73.8168   -8.3514 C.3     1  UNL1        0.2383
     13 H          15.4835   72.6069   -7.9268 H       1  UNL1        0.2105
     14 H          17.5745   72.4853  -10.9858 H       1  UNL1        0.2106
     15 O          20.8185   71.8608   -9.2004 O.2     1  UNL1       -0.2464
     16 O          24.3291   74.8406   -9.0151 O.2     1  UNL1       -0.2670
     17 N          20.3703   74.0540   -8.5340 N.ar    1  UNL1       -0.2551
     18 N          22.5655   73.3458   -9.1071 N.ar    1  UNL1       -0.2743
     19 C          21.2146   73.0032   -8.9627 C.ar    1  UNL1        0.3323
     20 C          20.8975   75.3171   -8.2886 C.ar    1  UNL1        0.0869
     21 C          22.1878   75.6280   -8.4314 C.ar    1  UNL1        0.0795
     22 C          23.1366   74.5874   -8.8747 C.ar    1  UNL1        0.2626
     23 H          23.1912   72.6058   -9.4138 H       1  UNL1        0.1734
     24 O          21.2939   71.3343   -3.8129 O.3     1  UNL1       -0.2703
     25 P          22.1741   72.6836   -3.6814 P.3     1  UNL1        0.2208
     26 O          21.2005   73.8226   -4.2902 O.3     1  UNL1       -0.4371
     27 O          23.5229   72.6055   -4.3374 O.2     1  UNL1       -0.5170
     28 O          22.2198   72.9892   -2.0976 O.3     1  UNL1       -0.2858
     29 O          21.4401   71.2964   -0.6395 O.3     1  UNL1       -0.3226
     30 O          21.6072   74.6024    1.8747 O.3     1  UNL1       -0.3794
     31 O          20.6203   74.8668   -0.8570 O.3     1  UNL1       -0.3775
     32 O          21.1751   71.8888    2.1564 O.3     1  UNL1       -0.3792
     33 C          21.9736   73.7288    0.8104 C.3     1  UNL1        0.1718
     34 C          20.8329   73.6182   -0.2070 C.3     1  UNL1        0.1968
     35 C          22.2937   72.3485    1.3906 C.3     1  UNL1        0.1723
     36 C          21.1484   72.5515   -1.2629 C.3     1  UNL1        0.2706
     37 C          22.5503   71.3610    0.2543 C.3     1  UNL1        0.1830
     38 H          22.3558   74.6402    2.4942 H       1  UNL1        0.2105
     39 H          19.8981   74.7456   -1.4962 H       1  UNL1        0.2106
     40 H          20.4684   71.6250    1.5432 H       1  UNL1        0.2106
     41 O          23.4418   69.9812    1.9292 O.co2   1  UNL1       -0.5466
     42 O          22.3196   68.9577    0.2291 O.co2   1  UNL1       -0.5466
     43 C          22.7398   69.9701    0.7704 C.2     1  UNL1        0.0799
@<TRIPOS>UNITY_ATOM_ATTR
41 1
charge -1
@<TRIPOS>BOND
     1     1     4    1
     2     1    24    1
     3     1     2    1
     4     1     3    2
     5    25    28    1
     6    25    24    1
     7    25    26    1
     8    25    27    2
     9     6    11    1
    10     6    12    1
    11    29    36    1
    12    29    37    1
    13     7     9    1
    14     7    13    1
    15     8    10    1
    16     8    14    1
    17     4     5    1
    18    28    36    1
    19    30    33    1
    20    30    38    1
    21    31    34    1
    22    31    39    1
    23    32    35    1
    24    32    40    1
    25    41    43   ar
    26    15    19    2
    27    42    43   ar
    28    16    22    2
    29    17    12    1
    30    17    19   ar
    31    17    20   ar
    32    18    19   ar
    33    18    22   ar
    34    18    23    1
    35     9    10    1
    36     9    11    1
    37    10    12    1
    38    11     5    1
    39    33    34    1
    40    33    35    1
    41    34    36    1
    42    35    37    1
    43    37    43    1
    44    20    21   ar
    45    21    22   ar
@<TRIPOS>MOLECULE
UDP-glaA
 43 45 0 0 0
SMALL
GASTEIGER

@<TRIPOS>ATOM
      1 P          21.9490   73.9582   -6.0201 P.3     1  UNL1        0.2189
      2 O          22.4244   75.2780   -6.8261 O.3     1  UNL1       -0.4371
      3 O          22.7538   72.7225   -6.2983 O.2     1  UNL1       -0.5170
      4 O          20.3674   73.8540   -6.3413 O.3     1  UNL1       -0.3112
      5 C          19.8571   74.5503   -7.4656 C.3     1  UNL1        0.1811
      6 O          19.5958   72.2182   -7.9823 O.3     1  UNL1       -0.3308
      7 O          17.9564   73.1135  -10.3280 O.3     1  UNL1       -0.3794
      8 O          16.0542   72.3687   -8.5217 O.3     1  UNL1       -0.3779
      9 C          18.0427   73.6762   -9.0190 C.3     1  UNL1        0.1713
     10 C          17.3012   72.8082   -8.0243 C.3     1  UNL1        0.1895
     11 C          19.4840   73.5441   -8.5450 C.3     1  UNL1        0.1764
     12 C          18.2801   71.6661   -7.8107 C.3     1  UNL1        0.2383
     13 H          18.4769   73.6806  -10.9221 H       1  UNL1        0.2105
     14 H          15.5292   73.1593   -8.7350 H       1  UNL1        0.2106
     15 O          16.2400   69.8936   -6.9910 O.2     1  UNL1       -0.2464
     16 O          17.9961   69.5461   -2.7444 O.2     1  UNL1       -0.2670
     17 N          18.1801   71.0968   -6.4972 N.ar    1  UNL1       -0.2551
     18 N          17.1155   69.7221   -4.8767 N.ar    1  UNL1       -0.2743
     19 C          17.1160   70.2180   -6.1872 C.ar    1  UNL1        0.3323
     20 C          19.1299   71.4108   -5.5315 C.ar    1  UNL1        0.0869
     21 C          19.1160   70.9295   -4.2866 C.ar    1  UNL1        0.0795
     22 C          18.0379   70.0057   -3.8815 C.ar    1  UNL1        0.2626
     23 H          16.3594   69.0889   -4.6313 H       1  UNL1        0.1734
     24 O          21.9750   74.4462   -4.4786 O.3     1  UNL1       -0.2703
     25 P          23.1024   74.2787   -3.3324 P.3     1  UNL1        0.2208
     26 O          23.1957   75.7579   -2.6848 O.3     1  UNL1       -0.4371
     27 O          24.4114   73.7363   -3.8304 O.2     1  UNL1       -0.5170
     28 O          22.3974   73.3782   -2.1940 O.3     1  UNL1       -0.2858
     29 O          23.0005   72.4035   -0.1237 O.3     1  UNL1       -0.3226
     30 O          20.9581   69.2988   -1.9860 O.3     1  UNL1       -0.3794
     31 O          22.7995   70.9791   -3.4998 O.3     1  UNL1       -0.3775
     32 O          21.9942   69.7952    0.5260 O.3     1  UNL1       -0.3792
     33 C          21.2902   70.6368   -1.6259 C.3     1  UNL1        0.1718
     34 C          22.7148   70.9742   -2.0787 C.3     1  UNL1        0.1968
     35 C          21.1747   70.7839   -0.1063 C.3     1  UNL1        0.1723
     36 C          23.1428   72.3477   -1.5470 C.3     1  UNL1        0.2706
     37 C          21.6630   72.1686    0.3139 C.3     1  UNL1        0.1830
     38 H          20.0514   69.1286   -1.6785 H       1  UNL1        0.2105
     39 H          23.7140   71.2061   -3.7385 H       1  UNL1        0.2106
     40 H          22.9253   70.0570    0.4279 H       1  UNL1        0.2106
     41 O          22.7530   73.0550    2.1927 O.co2   1  UNL1       -0.5466
     42 O          20.8686   71.8283    2.5684 O.co2   1  UNL1       -0.5466
     43 C          21.6901   72.3109    1.8025 C.2     1  UNL1        0.0799
@<TRIPOS>UNITY_ATOM_ATTR
41 1
charge -1
@<TRIPOS>BOND
     1     1     4    1
     2     1    24    1
     3     1     2    1
     4     1     3    2
     5    25    28    1
     6    25    24    1
     7    25    26    1
     8    25    27    2
     9     6    11    1
    10     6    12    1
    11    29    36    1
    12    29    37    1
    13     7     9    1
    14     7    13    1
    15     8    10    1
    16     8    14    1
    17     4     5    1
    18    28    36    1
    19    30    33    1
    20    30    38    1
    21    31    34    1
    22    31    39    1
    23    32    35    1
    24    32    40    1
    25    41    43   ar
    26    15    19    2
    27    42    43   ar
    28    16    22    2
    29    17    12    1
    30    17    19   ar
    31    17    20   ar
    32    18    19   ar
    33    18    22   ar
    34    18    23    1
    35     9    10    1
    36     9    11    1
    37    10    12    1
    38    11     5    1
    39    33    34    1
    40    33    35    1
    41    34    36    1
    42    35    37    1
    43    37    43    1
    44    20    21   ar
    45    21    22   ar
@<TRIPOS>MOLECULE
UDP-glaA
 43 45 0 0 0
SMALL
GASTEIGER

@<TRIPOS>ATOM
      1 P          21.8618   73.7188   -5.6835 P.3     1  UNL1        0.2189
      2 O          21.7937   75.2818   -6.0955 O.3     1  UNL1       -0.4371
      3 O          22.8356   72.8971   -6.4764 O.2     1  UNL1       -0.5170
      4 O          20.3205   73.2327   -5.7424 O.3     1  UNL1       -0.3112
      5 C          20.0514   71.8590   -5.9656 C.3     1  UNL1        0.1811
      6 O          19.0219   71.8345   -3.7945 O.3     1  UNL1       -0.3308
      7 O          19.9509   68.9907   -3.5921 O.3     1  UNL1       -0.3794
      8 O          17.3179   68.7121   -4.2447 O.3     1  UNL1       -0.3779
      9 C          19.4811   69.7084   -4.7332 C.3     1  UNL1        0.1713
     10 C          17.9798   69.8896   -4.6581 C.3     1  UNL1        0.1895
     11 C          19.9811   71.1429   -4.6243 C.3     1  UNL1        0.1764
     12 C          17.8479   71.0183   -3.6498 C.3     1  UNL1        0.2383
     13 H          20.9189   68.9333   -3.6642 H       1  UNL1        0.2105
     14 H          17.5407   68.0119   -4.8821 H       1  UNL1        0.2106
     15 O          15.8494   71.5280   -1.7207 O.2     1  UNL1       -0.2464
     16 O          13.4290   74.1351   -4.6505 O.2     1  UNL1       -0.2670
     17 N          16.6853   71.8270   -3.8811 N.ar    1  UNL1       -0.2551
     18 N          14.6452   72.8254   -3.1811 N.ar    1  UNL1       -0.2743
     19 C          15.7412   72.0196   -2.8456 C.ar    1  UNL1        0.3323
     20 C          16.4891   72.4197   -5.1236 C.ar    1  UNL1        0.0869
     21 C          15.4392   73.1857   -5.4277 C.ar    1  UNL1        0.0795
     22 C          14.4066   73.4360   -4.4026 C.ar    1  UNL1        0.2626
     23 H          13.9533   72.9772   -2.4521 H       1  UNL1        0.1734
     24 O          22.1643   73.7754   -4.0959 O.3     1  UNL1       -0.2703
     25 P          23.4877   74.2250   -3.2841 P.3     1  UNL1        0.2208
     26 O          23.2711   75.8138   -3.0722 O.3     1  UNL1       -0.4371
     27 O          24.7785   73.8599   -3.9597 O.2     1  UNL1       -0.5170
     28 O          23.3015   73.5877   -1.8134 O.3     1  UNL1       -0.2858
     29 O          21.6048   72.0965   -1.1084 O.3     1  UNL1       -0.3226
     30 O          22.5652   74.0579    2.4285 O.3     1  UNL1       -0.3794
     31 O          22.3843   75.5323   -0.0813 O.3     1  UNL1       -0.3775
     32 O          21.0119   71.8955    1.6928 O.3     1  UNL1       -0.3792
     33 C          22.7614   73.4688    1.1460 C.3     1  UNL1        0.1718
     34 C          21.9228   74.1964    0.0898 C.3     1  UNL1        0.1968
     35 C          22.3563   71.9937    1.2114 C.3     1  UNL1        0.1723
     36 C          21.9930   73.4662   -1.2572 C.3     1  UNL1        0.2706
     37 C          22.4241   71.3804   -0.1855 C.3     1  UNL1        0.1830
     38 H          23.1117   73.5653    3.0643 H       1  UNL1        0.2105
     39 H          21.8314   75.9486   -0.7638 H       1  UNL1        0.2106
     40 H          20.4088   72.1775    0.9843 H       1  UNL1        0.2106
     41 O          20.7744   69.8832   -0.9206 O.co2   1  UNL1       -0.5466
     42 O          22.4442   69.0326    0.3775 O.co2   1  UNL1       -0.5466
     43 C          21.9126   69.9750   -0.1916 C.2     1  UNL1        0.0799
@<TRIPOS>UNITY_ATOM_ATTR
41 1
charge -1
@<TRIPOS>BOND
     1     1     4    1
     2     1    24    1
     3     1     2    1
     4     1     3    2
     5    25    28    1
     6    25    24    1
     7    25    26    1
     8    25    27    2
     9     6    11    1
    10     6    12    1
    11    29    36    1
    12    29    37    1
    13     7     9    1
    14     7    13    1
    15     8    10    1
    16     8    14    1
    17     4     5    1
    18    28    36    1
    19    30    33    1
    20    30    38    1
    21    31    34    1
    22    31    39    1
    23    32    35    1
    24    32    40    1
    25    41    43   ar
    26    15    19    2
    27    42    43   ar
    28    16    22    2
    29    17    12    1
    30    17    19   ar
    31    17    20   ar
    32    18    19   ar
    33    18    22   ar
    34    18    23    1
    35     9    10    1
    36     9    11    1
    37    10    12    1
    38    11     5    1
    39    33    34    1
    40    33    35    1
    41    34    36    1
    42    35    37    1
    43    37    43    1
    44    20    21   ar
    45    21    22   ar
@<TRIPOS>MOLECULE
UDP-glaA
 43 45 0 0 0
SMALL
GASTEIGER

@<TRIPOS>ATOM
      1 P          22.2987   72.5641   -4.3108 P.3     1  UNL1        0.2189
      2 O          23.8820   72.6512   -3.9902 O.3     1  UNL1       -0.4371
      3 O          21.5799   71.4268   -3.6460 O.2     1  UNL1       -0.5170
      4 O          22.2259   72.5934   -5.9261 O.3     1  UNL1       -0.3112
      5 C          20.9967   72.9372   -6.5427 C.3     1  UNL1        0.1811
      6 O          18.8716   71.8458   -6.8019 O.3     1  UNL1       -0.3308
      7 O          20.2782   69.9580   -8.6591 O.3     1  UNL1       -0.3794
      8 O          19.0073   71.6494  -10.3795 O.3     1  UNL1       -0.3779
      9 C          20.4826   71.3580   -8.4691 C.3     1  UNL1        0.1713
     10 C          19.3541   72.1441   -9.1026 C.3     1  UNL1        0.1895
     11 C          20.2925   71.6638   -6.9893 C.3     1  UNL1        0.1764
     12 C          18.2385   71.9700   -8.0861 C.3     1  UNL1        0.2383
     13 H          21.0025   69.4951   -8.2043 H       1  UNL1        0.2105
     14 H          19.8031   71.6948  -10.9370 H       1  UNL1        0.2106
     15 O          18.9542   74.6041   -8.8104 O.2     1  UNL1       -0.2464
     16 O          14.7158   76.1903   -7.9394 O.2     1  UNL1       -0.2670
     17 N          17.3422   73.0903   -8.0586 N.ar    1  UNL1       -0.2551
     18 N          16.8433   75.3923   -8.3757 N.ar    1  UNL1       -0.2743
     19 C          17.8015   74.3723   -8.4412 C.ar    1  UNL1        0.3323
     20 C          16.0233   72.9130   -7.6555 C.ar    1  UNL1        0.0869
     21 C          15.1216   73.8956   -7.5989 C.ar    1  UNL1        0.0795
     22 C          15.5205   75.2648   -7.9810 C.ar    1  UNL1        0.2626
     23 H          17.1513   76.3226   -8.6456 H       1  UNL1        0.1734
     24 O          21.7638   74.0330   -3.8965 O.3     1  UNL1       -0.2703
     25 P          21.1308   74.5797   -2.5134 P.3     1  UNL1        0.2208
     26 O          19.5531   74.2630   -2.6765 O.3     1  UNL1       -0.4371
     27 O          21.4471   76.0178   -2.2172 O.2     1  UNL1       -0.5170
     28 O          21.6422   73.5397   -1.3904 O.3     1  UNL1       -0.2858
     29 O          21.1092   71.5798   -0.1763 O.3     1  UNL1       -0.3226
     30 O          21.4297   74.4161    2.8456 O.3     1  UNL1       -0.3794
     31 O          20.1211   75.0784    0.3247 O.3     1  UNL1       -0.3775
     32 O          21.1473   71.6726    2.6922 O.3     1  UNL1       -0.3792
     33 C          21.7058   73.7595    1.6115 C.3     1  UNL1        0.1718
     34 C          20.4600   73.7531    0.7192 C.3     1  UNL1        0.1968
     35 C          22.1488   72.3231    1.9030 C.3     1  UNL1        0.1723
     36 C          20.6946   72.9020   -0.5351 C.3     1  UNL1        0.2706
     37 C          22.3123   71.5601    0.5903 C.3     1  UNL1        0.1830
     38 H          22.2432   74.3943    3.3779 H       1  UNL1        0.2105
     39 H          19.3350   75.0231   -0.2444 H       1  UNL1        0.2106
     40 H          20.3856   71.4737    2.1218 H       1  UNL1        0.2106
     41 O          23.4370   69.9727    1.9015 O.co2   1  UNL1       -0.5466
     42 O          22.1910   69.1870    0.1616 O.co2   1  UNL1       -0.5466
     43 C          22.6186   70.1161    0.8313 C.2     1  UNL1        0.0799
@<TRIPOS>UNITY_ATOM_ATTR
41 1
charge -1
@<TRIPOS>BOND
     1     1     4    1
     2     1    24    1
     3     1     2    1
     4     1     3    2
     5    25    28    1
     6    25    24    1
     7    25    26    1
     8    25    27    2
     9     6    11    1
    10     6    12    1
    11    29    36    1
    12    29    37    1
    13     7     9    1
    14     7    13    1
    15     8    10    1
    16     8    14    1
    17     4     5    1
    18    28    36    1
    19    30    33    1
    20    30    38    1
    21    31    34    1
    22    31    39    1
    23    32    35    1
    24    32    40    1
    25    41    43   ar
    26    15    19    2
    27    42    43   ar
    28    16    22    2
    29    17    12    1
    30    17    19   ar
    31    17    20   ar
    32    18    19   ar
    33    18    22   ar
    34    18    23    1
    35     9    10    1
    36     9    11    1
    37    10    12    1
    38    11     5    1
    39    33    34    1
    40    33    35    1
    41    34    36    1
    42    35    37    1
    43    37    43    1
    44    20    21   ar
    45    21    22   ar
@<TRIPOS>MOLECULE
UDP-glaA
 43 45 0 0 0
SMALL
GASTEIGER

@<TRIPOS>ATOM
      1 P          22.3934   73.4940   -4.4402 P.3     1  UNL1        0.2189
      2 O          21.2974   72.3193   -4.2495 O.3     1  UNL1       -0.4371
      3 O          23.8210   73.0316   -4.4532 O.2     1  UNL1       -0.5170
      4 O          22.0137   74.5709   -3.2949 O.3     1  UNL1       -0.3112
      5 C          23.0579   75.3193   -2.6959 C.3     1  UNL1        0.1811
      6 O          21.7719   74.8884   -0.7122 O.3     1  UNL1       -0.3308
      7 O          23.1916   77.2386    0.4929 O.3     1  UNL1       -0.3794
      8 O          24.5360   75.1196    1.5599 O.3     1  UNL1       -0.3779
      9 C          23.6851   76.2538   -0.4150 C.3     1  UNL1        0.1713
     10 C          23.9111   74.9414    0.3056 C.3     1  UNL1        0.1895
     11 C          22.5608   75.8985   -1.3791 C.3     1  UNL1        0.1764
     12 C          22.4965   74.4015    0.4294 C.3     1  UNL1        0.2383
     13 H          23.0252   78.0479   -0.0197 H       1  UNL1        0.2105
     14 H          25.3850   75.5676    1.4029 H       1  UNL1        0.2106
     15 O          22.7072   72.8028    2.7478 O.2     1  UNL1       -0.2464
     16 O          22.3283   68.9058    0.3170 O.2     1  UNL1       -0.2670
     17 N          22.4555   72.9670    0.4315 N.ar    1  UNL1       -0.2551
     18 N          22.5189   70.8633    1.5357 N.ar    1  UNL1       -0.2743
     19 C          22.5710   72.2587    1.6505 C.ar    1  UNL1        0.3323
     20 C          22.3024   72.2761   -0.7654 C.ar    1  UNL1        0.0869
     21 C          22.2541   70.9454   -0.8582 C.ar    1  UNL1        0.0795
     22 C          22.3684   70.1313    0.3682 C.ar    1  UNL1        0.2626
     23 H          22.6006   70.3335    2.3993 H       1  UNL1        0.1734
     24 O          21.9094   74.2238   -5.7997 O.3     1  UNL1       -0.2703
     25 P          21.3504   73.6149   -7.1888 P.3     1  UNL1        0.2208
     26 O          22.2697   72.3036   -7.4157 O.3     1  UNL1       -0.4371
     27 O          21.3609   74.5853   -8.3351 O.2     1  UNL1       -0.5170
     28 O          19.8911   73.0322   -6.8219 O.3     1  UNL1       -0.2858
     29 O          19.1090   70.8455   -6.3681 O.3     1  UNL1       -0.3226
     30 O          15.9125   72.4995   -8.4480 O.3     1  UNL1       -0.3794
     31 O          18.6560   73.0176   -9.2912 O.3     1  UNL1       -0.3775
     32 O          16.3987   70.1762   -7.0353 O.3     1  UNL1       -0.3792
     33 C          17.0358   72.4433   -7.5731 C.3     1  UNL1        0.1718
     34 C          18.2918   72.0205   -8.3425 C.3     1  UNL1        0.1968
     35 C          16.7431   71.4387   -6.4553 C.3     1  UNL1        0.1723
     36 C          19.4654   71.7908   -7.3822 C.3     1  UNL1        0.2706
     37 C          17.9875   71.2582   -5.5887 C.3     1  UNL1        0.1830
     38 H          15.1419   72.7680   -7.9192 H       1  UNL1        0.2105
     39 H          19.4588   72.7110   -9.7454 H       1  UNL1        0.2106
     40 H          17.2075   69.7667   -7.3866 H       1  UNL1        0.2106
     41 O          18.9806   69.6898   -4.1542 O.co2   1  UNL1       -0.5466
     42 O          16.7043   69.8137   -4.1407 O.co2   1  UNL1       -0.5466
     43 C          17.7889   70.1890   -4.5619 C.2     1  UNL1        0.0799
@<TRIPOS>UNITY_ATOM_ATTR
41 1
charge -1
@<TRIPOS>BOND
     1     1     4    1
     2     1    24    1
     3     1     2    1
     4     1     3    2
     5    25    28    1
     6    25    24    1
     7    25    26    1
     8    25    27    2
     9     6    11    1
    10     6    12    1
    11    29    36    1
    12    29    37    1
    13     7     9    1
    14     7    13    1
    15     8    10    1
    16     8    14    1
    17     4     5    1
    18    28    36    1
    19    30    33    1
    20    30    38    1
    21    31    34    1
    22    31    39    1
    23    32    35    1
    24    32    40    1
    25    41    43   ar
    26    15    19    2
    27    42    43   ar
    28    16    22    2
    29    17    12    1
    30    17    19   ar
    31    17    20   ar
    32    18    19   ar
    33    18    22   ar
    34    18    23    1
    35     9    10    1
    36     9    11    1
    37    10    12    1
    38    11     5    1
    39    33    34    1
    40    33    35    1
    41    34    36    1
    42    35    37    1
    43    37    43    1
    44    20    21   ar
    45    21    22   ar
@<TRIPOS>MOLECULE
UDP-glaA
 43 45 0 0 0
SMALL
GASTEIGER

@<TRIPOS>ATOM
      1 P          21.8645   73.0843   -4.5386 P.3     1  UNL1        0.2189
      2 O          21.4996   74.1549   -3.3818 O.3     1  UNL1       -0.4371
      3 O          23.3207   73.0071   -4.8931 O.2     1  UNL1       -0.5170
      4 O          20.8650   73.4654   -5.7516 O.3     1  UNL1       -0.3112
      5 C          21.1820   73.0146   -7.0576 C.3     1  UNL1        0.1811
      6 O          19.1235   71.7850   -6.8994 O.3     1  UNL1       -0.3308
      7 O          20.3567   69.8377   -8.8173 O.3     1  UNL1       -0.3794
      8 O          18.7224   71.3083  -10.4304 O.3     1  UNL1       -0.3779
      9 C          20.4897   71.2578   -8.7616 C.3     1  UNL1        0.1713
     10 C          19.2255   71.9238   -9.2626 C.3     1  UNL1        0.1895
     11 C          20.5080   71.6708   -7.2958 C.3     1  UNL1        0.1764
     12 C          18.2939   71.7683   -8.0728 C.3     1  UNL1        0.2383
     13 H          21.1725   69.4556   -8.4512 H       1  UNL1        0.2105
     14 H          19.4182   71.3543  -11.1085 H       1  UNL1        0.2106
     15 O          15.8620   71.6122   -6.6454 O.2     1  UNL1       -0.2464
     16 O          14.6961   75.9185   -7.8007 O.2     1  UNL1       -0.2670
     17 N          17.3365   72.8335   -7.9832 N.ar    1  UNL1       -0.2551
     18 N          15.2828   73.7565   -7.2221 N.ar    1  UNL1       -0.2743
     19 C          16.1456   72.6527   -7.2417 C.ar    1  UNL1        0.3323
     20 C          17.5817   74.0417   -8.6263 C.ar    1  UNL1        0.0869
     21 C          16.7493   75.0848   -8.5978 C.ar    1  UNL1        0.0795
     22 C          15.4831   74.9780   -7.8461 C.ar    1  UNL1        0.2626
     23 H          14.4201   73.6490   -6.6955 H       1  UNL1        0.1734
     24 O          21.2360   71.7073   -3.9692 O.3     1  UNL1       -0.2703
     25 P          21.7771   70.6801   -2.8446 P.3     1  UNL1        0.2208
     26 O          23.3723   70.6460   -3.1101 O.3     1  UNL1       -0.4371
     27 O          21.1151   69.3323   -2.8719 O.2     1  UNL1       -0.5170
     28 O          21.6120   71.4759   -1.4506 O.3     1  UNL1       -0.2858
     29 O          23.2601   72.8807   -0.4969 O.3     1  UNL1       -0.3226
     30 O          21.0519   71.7419    2.8357 O.3     1  UNL1       -0.3794
     31 O          21.6876   69.8073    0.7478 O.3     1  UNL1       -0.3775
     32 O          23.0729   73.5439    2.2895 O.3     1  UNL1       -0.3792
     33 C          21.3175   72.0947    1.4810 C.3     1  UNL1        0.1718
     34 C          22.2901   71.0933    0.8488 C.3     1  UNL1        0.1968
     35 C          21.9181   73.5027    1.4446 C.3     1  UNL1        0.1723
     36 C          22.7154   71.5580   -0.5496 C.3     1  UNL1        0.2706
     37 C          22.3412   73.8434    0.0173 C.3     1  UNL1        0.1830
     38 H          20.4357   72.4025    3.1955 H       1  UNL1        0.2105
     39 H          22.3351   69.2116    0.3346 H       1  UNL1        0.2106
     40 H          23.7965   73.0689    1.8469 H       1  UNL1        0.2106
     41 O          24.3788   74.9761   -0.2448 O.co2   1  UNL1       -0.5466
     42 O          22.5150   76.2511    0.0680 O.co2   1  UNL1       -0.5466
     43 C          23.0514   75.1583   -0.0438 C.2     1  UNL1        0.0799
@<TRIPOS>UNITY_ATOM_ATTR
41 1
charge -1
@<TRIPOS>BOND
     1     1     4    1
     2     1    24    1
     3     1     2    1
     4     1     3    2
     5    25    28    1
     6    25    24    1
     7    25    26    1
     8    25    27    2
     9     6    11    1
    10     6    12    1
    11    29    36    1
    12    29    37    1
    13     7     9    1
    14     7    13    1
    15     8    10    1
    16     8    14    1
    17     4     5    1
    18    28    36    1
    19    30    33    1
    20    30    38    1
    21    31    34    1
    22    31    39    1
    23    32    35    1
    24    32    40    1
    25    41    43   ar
    26    15    19    2
    27    42    43   ar
    28    16    22    2
    29    17    12    1
    30    17    19   ar
    31    17    20   ar
    32    18    19   ar
    33    18    22   ar
    34    18    23    1
    35     9    10    1
    36     9    11    1
    37    10    12    1
    38    11     5    1
    39    33    34    1
    40    33    35    1
    41    34    36    1
    42    35    37    1
    43    37    43    1
    44    20    21   ar
    45    21    22   ar
@<TRIPOS>MOLECULE
UDP-glaA
 43 45 0 0 0
SMALL
GASTEIGER

@<TRIPOS>ATOM
      1 P          21.6358   72.7989   -4.8484 P.3     1  UNL1        0.2189
      2 O          21.2270   74.0173   -3.8657 O.3     1  UNL1       -0.4371
      3 O          23.0959   72.7210   -5.1865 O.2     1  UNL1       -0.5170
      4 O          20.6308   72.9581   -6.1055 O.3     1  UNL1       -0.3112
      5 C          21.1736   72.9299   -7.4146 C.3     1  UNL1        0.1811
      6 O          19.7084   71.0259   -7.3655 O.3     1  UNL1       -0.3308
      7 O          18.9972   71.7354  -10.1907 O.3     1  UNL1       -0.3794
      8 O          16.8807   72.7173   -8.7793 O.3     1  UNL1       -0.3779
      9 C          19.2890   72.5957   -9.0896 C.3     1  UNL1        0.1713
     10 C          18.1262   72.6203   -8.1200 C.3     1  UNL1        0.1895
     11 C          20.3834   71.9396   -8.2581 C.3     1  UNL1        0.1764
     12 C          18.2979   71.3005   -7.3874 C.3     1  UNL1        0.2383
     13 H          19.7831   71.7207  -10.7632 H       1  UNL1        0.2105
     14 H          16.8932   73.5323   -9.3102 H       1  UNL1        0.2106
     15 O          17.3314   73.6388   -6.1330 O.2     1  UNL1       -0.2464
     16 O          16.4589   71.3912   -2.2055 O.2     1  UNL1       -0.2670
     17 N          17.8116   71.3550   -6.0384 N.ar    1  UNL1       -0.2551
     18 N          16.8980   72.5182   -4.1779 N.ar    1  UNL1       -0.2743
     19 C          17.3491   72.5798   -5.5030 C.ar    1  UNL1        0.3323
     20 C          17.7963   70.2029   -5.2600 C.ar    1  UNL1        0.0869
     21 C          17.3627   70.1603   -3.9983 C.ar    1  UNL1        0.0795
     22 C          16.8638   71.3966   -3.3639 C.ar    1  UNL1        0.2626
     23 H          16.5614   73.3871   -3.7720 H       1  UNL1        0.1734
     24 O          21.0525   71.5016   -4.0792 O.3     1  UNL1       -0.2703
     25 P          21.6997   70.5732   -2.9251 P.3     1  UNL1        0.2208
     26 O          23.2800   70.6022   -3.2684 O.3     1  UNL1       -0.4371
     27 O          21.1090   69.1950   -2.8397 O.2     1  UNL1       -0.5170
     28 O          21.5594   71.4436   -1.5735 O.3     1  UNL1       -0.2858
     29 O          23.2159   72.8532   -0.6418 O.3     1  UNL1       -0.3226
     30 O          21.0007   71.7803    2.7080 O.3     1  UNL1       -0.3794
     31 O          21.6249   69.8093    0.6508 O.3     1  UNL1       -0.3775
     32 O          23.0325   73.5613    2.1337 O.3     1  UNL1       -0.3792
     33 C          21.2685   72.1101    1.3479 C.3     1  UNL1        0.1718
     34 C          22.2351   71.0931    0.7316 C.3     1  UNL1        0.1968
     35 C          21.8776   73.5137    1.2895 C.3     1  UNL1        0.1723
     36 C          22.6633   71.5332   -0.6738 C.3     1  UNL1        0.2706
     37 C          22.3027   73.8294   -0.1429 C.3     1  UNL1        0.1830
     38 H          20.3885   72.4501    3.0572 H       1  UNL1        0.2105
     39 H          22.2688   69.2033    0.2471 H       1  UNL1        0.2106
     40 H          23.7533   73.0751    1.6988 H       1  UNL1        0.2106
     41 O          24.3596   74.9575   -0.1223 O.co2   1  UNL1       -0.5466
     42 O          22.4819   76.2268   -0.3672 O.co2   1  UNL1       -0.5466
     43 C          23.0209   75.1389   -0.2246 C.2     1  UNL1        0.0799
@<TRIPOS>UNITY_ATOM_ATTR
41 1
charge -1
@<TRIPOS>BOND
     1     1     4    1
     2     1    24    1
     3     1     2    1
     4     1     3    2
     5    25    28    1
     6    25    24    1
     7    25    26    1
     8    25    27    2
     9     6    11    1
    10     6    12    1
    11    29    36    1
    12    29    37    1
    13     7     9    1
    14     7    13    1
    15     8    10    1
    16     8    14    1
    17     4     5    1
    18    28    36    1
    19    30    33    1
    20    30    38    1
    21    31    34    1
    22    31    39    1
    23    32    35    1
    24    32    40    1
    25    41    43   ar
    26    15    19    2
    27    42    43   ar
    28    16    22    2
    29    17    12    1
    30    17    19   ar
    31    17    20   ar
    32    18    19   ar
    33    18    22   ar
    34    18    23    1
    35     9    10    1
    36     9    11    1
    37    10    12    1
    38    11     5    1
    39    33    34    1
    40    33    35    1
    41    34    36    1
    42    35    37    1
    43    37    43    1
    44    20    21   ar
    45    21    22   ar
