@<TRIPOS>MOLECULE
*****
 43 45 0 0 0
SMALL
GASTEIGER

@<TRIPOS>ATOM
      1 P          22.9625   71.6468   -2.7357 P.3     1  UNL1        0.2189
      2 O          23.7840   72.9606   -3.2025 O.co2   1  UNL1       -0.4371
      3 O          23.4945   70.3464   -3.2628 O.2     1  UNL1       -0.5170
      4 O          21.4297   71.9883   -3.1252 O.3     1  UNL1       -0.3112
      5 C          20.5768   70.9255   -3.5094 C.3     1  UNL1        0.1811
      6 O          18.7263   71.9678   -4.6350 O.3     1  UNL1       -0.3308
      7 O          16.9945   70.7728   -2.4985 O.3     1  UNL1       -0.3794
      8 O          16.6100   69.0740   -4.5967 O.3     1  UNL1       -0.3779
      9 C          18.1590   70.2337   -3.1244 C.3     1  UNL1        0.1713
     10 C          17.8339   69.7754   -4.5303 C.3     1  UNL1        0.1895
     11 C          19.1286   71.3797   -3.3790 C.3     1  UNL1        0.1764
     12 C          17.7962   71.0906   -5.2898 C.3     1  UNL1        0.2383
     13 H          16.3600   70.0591   -2.3259 H       1  UNL1        0.2105
     14 H          16.6852   68.2445   -4.0984 H       1  UNL1        0.2106
     15 O          16.0384   70.3432   -7.3702 O.2     1  UNL1       -0.2464
     16 O          19.3927   70.5475  -10.5247 O.2     1  UNL1       -0.2670
     17 N          18.1837   70.9410   -6.6640 N.ar    1  UNL1       -0.2551
     18 N          17.7109   70.4447   -8.9392 N.ar    1  UNL1       -0.2743
     19 C          17.2230   70.5615   -7.6310 C.ar    1  UNL1        0.3323
     20 C          19.5010   71.1708   -7.0422 C.ar    1  UNL1        0.0869
     21 C          19.9511   71.0555   -8.2931 C.ar    1  UNL1        0.0795
     22 C          19.0117   70.6622   -9.3637 C.ar    1  UNL1        0.2626
     23 H          17.0610   70.1796   -9.6296 H       1  UNL1        0.1734
     24 O          22.9643   71.7713   -1.1241 O.3     1  UNL1       -0.2703
     25 P          22.4822   70.7368    0.0209 P.3     1  UNL1        0.2208
     26 O          23.7047   69.6788    0.1020 O.co2   1  UNL1       -0.4371
     27 O          21.1411   70.1134   -0.2374 O.2     1  UNL1       -0.5170
     28 O          22.5772   71.5749    1.3961 O.3     1  UNL1       -0.2858
     29 O          21.5683   72.3781    3.3825 O.3     1  UNL1       -0.3226
     30 O          21.3620   75.6985    0.9329 O.3     1  UNL1       -0.3794
     31 O          20.7653   73.0404   -0.1222 O.3     1  UNL1       -0.3775
     32 O          23.3390   75.5755    3.0606 O.3     1  UNL1       -0.3792
     33 C          21.9217   74.4886    1.4436 C.3     1  UNL1        0.1718
     34 C          20.9239   73.3451    1.2586 C.3     1  UNL1        0.1968
     35 C          22.2229   74.6971    2.9294 C.3     1  UNL1        0.1723
     36 C          21.3891   72.0884    1.9956 C.3     1  UNL1        0.2706
     37 C          22.5564   73.3782    3.6207 C.3     1  UNL1        0.1830
     38 H          21.1623   75.5897   -0.0103 H       1  UNL1        0.2105
     39 H          20.4704   73.8335   -0.5960 H       1  UNL1        0.2106
     40 H          23.1397   76.4188    2.6246 H       1  UNL1        0.2106
     41 O          23.6868   74.0672    5.5568 O.co2   1  UNL1       -0.5466
     42 O          21.5827   73.2302    5.8233 O.co2   1  UNL1       -0.5466
     43 C          22.5239   73.5348    5.1062 C.2     1  UNL1        0.0799
@<TRIPOS>UNITY_ATOM_ATTR
2 1
charge -1
26 1
charge -1
41 1
charge -1
@<TRIPOS>BOND
     1     1     4    1
     2     1    24    1
     3     1     2    1
     4     1     3    2
     5    25    28    1
     6    25    24    1
     7    25    26    1
     8    25    27    2
     9     6    11    1
    10     6    12    1
    11    29    36    1
    12    29    37    1
    13     7     9    1
    14     7    13    1
    15     8    10    1
    16     8    14    1
    17     4     5    1
    18    28    36    1
    19    30    33    1
    20    30    38    1
    21    31    34    1
    22    31    39    1
    23    32    35    1
    24    32    40    1
    25    41    43   ar
    26    15    19    2
    27    42    43   ar
    28    16    22    2
    29    17    12    1
    30    17    19   ar
    31    17    20   ar
    32    18    19   ar
    33    18    22   ar
    34    18    23    1
    35     9    10    1
    36     9    11    1
    37    10    12    1
    38    11     5    1
    39    33    34    1
    40    33    35    1
    41    34    36    1
    42    35    37    1
    43    37    43    1
    44    20    21   ar
    45    21    22   ar
@<TRIPOS>MOLECULE
*****
 43 45 0 0 0
SMALL
GASTEIGER

@<TRIPOS>ATOM
      1 P          22.1160   74.3908   -5.9710 P.3     1  UNL1        0.2189
      2 O          20.8896   75.1414   -5.2283 O.co2   1  UNL1       -0.4371
      3 O          23.3685   75.2058   -6.1070 O.2     1  UNL1       -0.5170
      4 O          21.4670   73.8633   -7.3561 O.3     1  UNL1       -0.3112
      5 C          20.1292   74.2180   -7.6542 C.3     1  UNL1        0.1811
      6 O          19.6346   71.9333   -8.2137 O.3     1  UNL1       -0.3308
      7 O          17.9144   73.0380  -10.4074 O.3     1  UNL1       -0.3794
      8 O          16.0894   72.3925   -8.4869 O.3     1  UNL1       -0.3779
      9 C          18.1411   73.5479   -9.0932 C.3     1  UNL1        0.1713
     10 C          17.4011   72.7109   -8.0714 C.3     1  UNL1        0.1895
     11 C          19.5956   73.2813   -8.7303 C.3     1  UNL1        0.1764
     12 C          18.2931   71.4861   -7.9613 C.3     1  UNL1        0.2383
     13 H          16.9914   73.1967  -10.6615 H       1  UNL1        0.2105
     14 H          15.5613   73.2050   -8.5414 H       1  UNL1        0.2106
     15 O          16.1160   69.9680   -6.9957 O.2     1  UNL1       -0.2464
     16 O          18.1940   69.2235   -2.9495 O.2     1  UNL1       -0.2670
     17 N          18.2389   70.8840   -6.6593 N.ar    1  UNL1       -0.2551
     18 N          17.1526   69.5995   -4.9810 N.ar    1  UNL1       -0.2743
     19 C          17.0984   70.1413   -6.2720 C.ar    1  UNL1        0.3323
     20 C          19.3070   71.0301   -5.7825 C.ar    1  UNL1        0.0869
     21 C          19.3442   70.5077   -4.5551 C.ar    1  UNL1        0.0795
     22 C          18.1921   69.7182   -4.0727 C.ar    1  UNL1        0.2626
     23 H          16.3692   69.0800   -4.6882 H       1  UNL1        0.1734
     24 O          22.2859   73.0337   -5.1094 O.3     1  UNL1       -0.2703
     25 P          23.1031   72.7371   -3.7463 P.3     1  UNL1        0.2208
     26 O          24.3350   73.7848   -3.8183 O.co2   1  UNL1       -0.4371
     27 O          23.5189   71.3045   -3.5769 O.2     1  UNL1       -0.5170
     28 O          22.1556   73.3029   -2.5697 O.3     1  UNL1       -0.2858
     29 O          21.5557   71.3006   -1.4561 O.3     1  UNL1       -0.3226
     30 O          20.1657   74.1717    1.1694 O.3     1  UNL1       -0.3794
     31 O          19.7936   74.4939   -1.7102 O.3     1  UNL1       -0.3775
     32 O          22.6050   72.7073    1.7661 O.3     1  UNL1       -0.3792
     33 C          21.0373   73.6218    0.1815 C.3     1  UNL1        0.1718
     34 C          20.2394   73.2977   -1.0817 C.3     1  UNL1        0.1968
     35 C          21.6620   72.3491    0.7577 C.3     1  UNL1        0.1723
     36 C          21.0862   72.4995   -2.0740 C.3     1  UNL1        0.2706
     37 C          22.3827   71.5449   -0.3205 C.3     1  UNL1        0.1830
     38 H          19.7570   74.9816    0.8255 H       1  UNL1        0.2105
     39 H          19.2558   75.0055   -1.0862 H       1  UNL1        0.2106
     40 H          22.1591   73.2198    2.4584 H       1  UNL1        0.2106
     41 O          21.6255   69.6238    0.7920 O.co2   1  UNL1       -0.5466
     42 O          23.7723   69.6028    0.0238 O.co2   1  UNL1       -0.5466
     43 C          22.6986   70.1683    0.1668 C.2     1  UNL1        0.0799
@<TRIPOS>UNITY_ATOM_ATTR
2 1
charge -1
26 1
charge -1
41 1
charge -1
@<TRIPOS>BOND
     1     1     4    1
     2     1    24    1
     3     1     2    1
     4     1     3    2
     5    25    28    1
     6    25    24    1
     7    25    26    1
     8    25    27    2
     9     6    11    1
    10     6    12    1
    11    29    36    1
    12    29    37    1
    13     7     9    1
    14     7    13    1
    15     8    10    1
    16     8    14    1
    17     4     5    1
    18    28    36    1
    19    30    33    1
    20    30    38    1
    21    31    34    1
    22    31    39    1
    23    32    35    1
    24    32    40    1
    25    41    43   ar
    26    15    19    2
    27    42    43   ar
    28    16    22    2
    29    17    12    1
    30    17    19   ar
    31    17    20   ar
    32    18    19   ar
    33    18    22   ar
    34    18    23    1
    35     9    10    1
    36     9    11    1
    37    10    12    1
    38    11     5    1
    39    33    34    1
    40    33    35    1
    41    34    36    1
    42    35    37    1
    43    37    43    1
    44    20    21   ar
    45    21    22   ar
@<TRIPOS>MOLECULE
*****
 43 45 0 0 0
SMALL
GASTEIGER

@<TRIPOS>ATOM
      1 P          21.8908   75.4228   -5.1033 P.3     1  UNL1        0.2189
      2 O          21.3936   76.9620   -5.0513 O.co2   1  UNL1       -0.4371
      3 O          22.4375   74.9781   -6.4281 O.2     1  UNL1       -0.5170
      4 O          20.6215   74.5856   -4.5502 O.3     1  UNL1       -0.3112
      5 C          19.4418   74.5507   -5.3323 C.3     1  UNL1        0.1811
      6 O          17.7684   72.8766   -5.7504 O.3     1  UNL1       -0.3308
      7 O          18.1561   72.0425   -2.8964 O.3     1  UNL1       -0.3794
      8 O          19.5919   70.1709   -4.2644 O.3     1  UNL1       -0.3779
      9 C          19.1188   72.5174   -3.8378 C.3     1  UNL1        0.1713
     10 C          19.4294   71.4423   -4.8575 C.3     1  UNL1        0.1895
     11 C          18.4516   73.5852   -4.6938 C.3     1  UNL1        0.1764
     12 C          18.2158   71.5117   -5.7686 C.3     1  UNL1        0.2383
     13 H          18.5594   71.3590   -2.3379 H       1  UNL1        0.2105
     14 H          20.3774   70.1780   -3.6944 H       1  UNL1        0.2106
     15 O          16.3178   70.5642   -7.6331 O.2     1  UNL1       -0.2464
     16 O          19.5092   70.1123  -10.9277 O.2     1  UNL1       -0.2670
     17 N          18.5235   71.1392   -7.1205 N.ar    1  UNL1       -0.2551
     18 N          17.9093   70.3391   -9.2719 N.ar    1  UNL1       -0.2743
     19 C          17.4964   70.6751   -7.9759 C.ar    1  UNL1        0.3323
     20 C          19.8288   71.2368   -7.5868 C.ar    1  UNL1        0.0869
     21 C          20.2071   70.9128   -8.8248 C.ar    1  UNL1        0.0795
     22 C          19.1952   70.4185   -9.7815 C.ar    1  UNL1        0.2626
     23 H          17.2122   70.0115   -9.8852 H       1  UNL1        0.1734
     24 O          22.9425   75.3396   -3.8786 O.3     1  UNL1       -0.2703
     25 P          23.8340   74.1090   -3.3268 P.3     1  UNL1        0.2208
     26 O          25.2355   74.8158   -2.9313 O.co2   1  UNL1       -0.4371
     27 O          23.9684   72.9655   -4.2902 O.2     1  UNL1       -0.5170
     28 O          23.1619   73.7182   -1.9133 O.3     1  UNL1       -0.2858
     29 O          22.1857   71.6244   -1.3916 O.3     1  UNL1       -0.3226
     30 O          20.2082   74.1467    1.2151 O.3     1  UNL1       -0.3794
     31 O          20.7012   74.9619   -1.5465 O.3     1  UNL1       -0.3775
     32 O          22.3092   72.3922    2.1941 O.3     1  UNL1       -0.3792
     33 C          21.3066   73.6877    0.4273 C.3     1  UNL1        0.1718
     34 C          20.8976   73.6448   -1.0453 C.3     1  UNL1        0.1968
     35 C          21.6862   72.2878    0.9153 C.3     1  UNL1        0.1723
     36 C          21.9637   72.9446   -1.8890 C.3     1  UNL1        0.2706
     37 C          22.6563   71.6068   -0.0458 C.3     1  UNL1        0.1830
     38 H          19.9494   75.0350    0.9230 H       1  UNL1        0.2105
     39 H          20.0262   75.4122   -1.0156 H       1  UNL1        0.2106
     40 H          21.7022   72.8241    2.8152 H       1  UNL1        0.2106
     41 O          21.5863   69.6693    0.7305 O.co2   1  UNL1       -0.5466
     42 O          23.7658   69.4687    0.0913 O.co2   1  UNL1       -0.5466
     43 C          22.7624   70.1469    0.2534 C.2     1  UNL1        0.0799
@<TRIPOS>UNITY_ATOM_ATTR
2 1
charge -1
26 1
charge -1
41 1
charge -1
@<TRIPOS>BOND
     1     1     4    1
     2     1    24    1
     3     1     2    1
     4     1     3    2
     5    25    28    1
     6    25    24    1
     7    25    26    1
     8    25    27    2
     9     6    11    1
    10     6    12    1
    11    29    36    1
    12    29    37    1
    13     7     9    1
    14     7    13    1
    15     8    10    1
    16     8    14    1
    17     4     5    1
    18    28    36    1
    19    30    33    1
    20    30    38    1
    21    31    34    1
    22    31    39    1
    23    32    35    1
    24    32    40    1
    25    41    43   ar
    26    15    19    2
    27    42    43   ar
    28    16    22    2
    29    17    12    1
    30    17    19   ar
    31    17    20   ar
    32    18    19   ar
    33    18    22   ar
    34    18    23    1
    35     9    10    1
    36     9    11    1
    37    10    12    1
    38    11     5    1
    39    33    34    1
    40    33    35    1
    41    34    36    1
    42    35    37    1
    43    37    43    1
    44    20    21   ar
    45    21    22   ar
@<TRIPOS>MOLECULE
*****
 43 45 0 0 0
SMALL
GASTEIGER

@<TRIPOS>ATOM
      1 P          21.7124   70.9156   -1.0476 P.3     1  UNL1        0.2189
      2 O          23.2968   70.5916   -1.1066 O.co2   1  UNL1       -0.4371
      3 O          20.8278   69.7191   -0.8540 O.2     1  UNL1       -0.5170
      4 O          21.4423   71.7794   -2.3888 O.3     1  UNL1       -0.3112
      5 C          20.6839   71.1919   -3.4301 C.3     1  UNL1        0.1811
      6 O          18.8043   72.1691   -4.5658 O.3     1  UNL1       -0.3308
      7 O          17.1183   71.0300   -2.3633 O.3     1  UNL1       -0.3794
      8 O          16.7273   69.2518   -4.3934 O.3     1  UNL1       -0.3779
      9 C          18.2811   70.4836   -2.9859 C.3     1  UNL1        0.1713
     10 C          17.9427   69.9708   -4.3697 C.3     1  UNL1        0.1895
     11 C          19.2318   71.6319   -3.2954 C.3     1  UNL1        0.1764
     12 C          17.8770   71.2570   -5.1754 C.3     1  UNL1        0.2383
     13 H          16.4958   70.3150   -2.1561 H       1  UNL1        0.2105
     14 H          16.8205   68.4419   -3.8667 H       1  UNL1        0.2106
     15 O          16.1004   70.4135   -7.2023 O.2     1  UNL1       -0.2464
     16 O          19.4078   70.5458  -10.4097 O.2     1  UNL1       -0.2670
     17 N          18.2474   71.0630   -6.5487 N.ar    1  UNL1       -0.2551
     18 N          17.7496   70.4792   -8.7976 N.ar    1  UNL1       -0.2743
     19 C          17.2783   70.6370   -7.4877 C.ar    1  UNL1        0.3323
     20 C          19.5562   71.2954   -6.9536 C.ar    1  UNL1        0.0869
     21 C          19.9904   71.1407   -8.2059 C.ar    1  UNL1        0.0795
     22 C          19.0415   70.6974   -9.2482 C.ar    1  UNL1        0.2626
     23 H          17.0937   70.1814   -9.4688 H       1  UNL1        0.1734
     24 O          21.6121   72.0239    0.1247 O.3     1  UNL1       -0.2703
     25 P          22.1777   73.5362    0.2069 P.3     1  UNL1        0.2208
     26 O          20.9530   74.4212   -0.3740 O.co2   1  UNL1       -0.4371
     27 O          23.4832   73.7449   -0.5044 O.2     1  UNL1       -0.5170
     28 O          22.2127   73.8750    1.7838 O.3     1  UNL1       -0.2858
     29 O          23.9814   73.5553    3.3260 O.3     1  UNL1       -0.3226
     30 O          20.6641   73.1283    5.7511 O.3     1  UNL1       -0.3794
     31 O          20.7168   71.9268    3.0887 O.3     1  UNL1       -0.3775
     32 O          22.2330   75.5740    5.8420 O.3     1  UNL1       -0.3792
     33 C          21.4187   73.6426    4.6538 C.3     1  UNL1        0.1718
     34 C          21.8470   72.4917    3.7430 C.3     1  UNL1        0.1968
     35 C          22.6469   74.3594    5.2191 C.3     1  UNL1        0.1723
     36 C          22.8451   72.9711    2.6881 C.3     1  UNL1        0.2706
     37 C          23.6522   74.6926    4.1205 C.3     1  UNL1        0.1830
     38 H          19.8784   72.6683    5.4160 H       1  UNL1        0.2105
     39 H          20.0791   71.6207    3.7521 H       1  UNL1        0.2106
     40 H          21.5927   75.3759    6.5432 H       1  UNL1        0.2106
     41 O          25.0405   76.4290    4.8682 O.co2   1  UNL1       -0.5466
     42 O          25.8628   74.3068    5.0068 O.co2   1  UNL1       -0.5466
     43 C          24.9691   75.0844    4.7075 C.2     1  UNL1        0.0799
@<TRIPOS>UNITY_ATOM_ATTR
2 1
charge -1
26 1
charge -1
41 1
charge -1
@<TRIPOS>BOND
     1     1     4    1
     2     1    24    1
     3     1     2    1
     4     1     3    2
     5    25    28    1
     6    25    24    1
     7    25    26    1
     8    25    27    2
     9     6    11    1
    10     6    12    1
    11    29    36    1
    12    29    37    1
    13     7     9    1
    14     7    13    1
    15     8    10    1
    16     8    14    1
    17     4     5    1
    18    28    36    1
    19    30    33    1
    20    30    38    1
    21    31    34    1
    22    31    39    1
    23    32    35    1
    24    32    40    1
    25    41    43   ar
    26    15    19    2
    27    42    43   ar
    28    16    22    2
    29    17    12    1
    30    17    19   ar
    31    17    20   ar
    32    18    19   ar
    33    18    22   ar
    34    18    23    1
    35     9    10    1
    36     9    11    1
    37    10    12    1
    38    11     5    1
    39    33    34    1
    40    33    35    1
    41    34    36    1
    42    35    37    1
    43    37    43    1
    44    20    21   ar
    45    21    22   ar
@<TRIPOS>MOLECULE
*****
 43 45 0 0 0
SMALL
GASTEIGER

@<TRIPOS>ATOM
      1 P          23.0183   71.8705   -3.3242 P.3     1  UNL1        0.2189
      2 O          23.7751   72.9498   -4.2629 O.co2   1  UNL1       -0.4371
      3 O          23.6892   70.5315   -3.2307 O.2     1  UNL1       -0.5170
      4 O          21.5025   71.8588   -3.8900 O.3     1  UNL1       -0.3112
      5 C          20.6614   70.7725   -3.5478 C.3     1  UNL1        0.1811
      6 O          18.8372   71.9033   -4.6301 O.3     1  UNL1       -0.3308
      7 O          17.0909   70.7448   -2.4854 O.3     1  UNL1       -0.3794
      8 O          16.6094   69.0943   -4.6020 O.3     1  UNL1       -0.3779
      9 C          18.2241   70.1700   -3.1364 C.3     1  UNL1        0.1713
     10 C          17.8609   69.7462   -4.5438 C.3     1  UNL1        0.1895
     11 C          19.2343   71.2809   -3.3890 C.3     1  UNL1        0.1764
     12 C          17.8640   71.0731   -5.2835 C.3     1  UNL1        0.2383
     13 H          16.4314   70.0540   -2.3136 H       1  UNL1        0.2105
     14 H          16.6592   68.2551   -4.1170 H       1  UNL1        0.2106
     15 O          16.0466   70.4350   -7.3490 O.2     1  UNL1       -0.2464
     16 O          19.3618   70.5469  -10.5492 O.2     1  UNL1       -0.2670
     17 N          18.2253   70.9293   -6.6654 N.ar    1  UNL1       -0.2551
     18 N          17.6996   70.4903   -8.9407 N.ar    1  UNL1       -0.2743
     19 C          17.2356   70.6068   -7.6239 C.ar    1  UNL1        0.3323
     20 C          19.5457   71.1088   -7.0593 C.ar    1  UNL1        0.0869
     21 C          19.9728   70.9946   -8.3184 C.ar    1  UNL1        0.0795
     22 C          19.0025   70.6589   -9.3810 C.ar    1  UNL1        0.2626
     23 H          17.0293   70.2643   -9.6255 H       1  UNL1        0.1734
     24 O          22.8747   72.6515   -1.9163 O.3     1  UNL1       -0.2703
     25 P          22.9030   74.2306   -1.5708 P.3     1  UNL1        0.2208
     26 O          21.9144   74.8700   -2.6817 O.co2   1  UNL1       -0.4371
     27 O          24.2787   74.8314   -1.5481 O.2     1  UNL1       -0.5170
     28 O          22.0928   74.3602   -0.1818 O.3     1  UNL1       -0.2858
     29 O          21.2593   72.1638    0.1190 O.3     1  UNL1       -0.3226
     30 O          20.3134   73.9244    3.7347 O.3     1  UNL1       -0.3794
     31 O          19.9260   75.3809    1.2321 O.3     1  UNL1       -0.3775
     32 O          22.5519   72.0787    3.5518 O.3     1  UNL1       -0.3792
     33 C          21.0844   73.7077    2.5529 C.3     1  UNL1        0.1718
     34 C          20.2244   73.9925    1.3214 C.3     1  UNL1        0.1968
     35 C          21.5490   72.2496    2.5521 C.3     1  UNL1        0.1723
     36 C          20.9381   73.5532    0.0422 C.3     1  UNL1        0.2706
     37 C          22.1350   71.8524    1.2003 C.3     1  UNL1        0.1830
     38 H          20.0073   74.8448    3.7570 H       1  UNL1        0.2105
     39 H          19.4733   75.6666    2.0407 H       1  UNL1        0.2106
     40 H          22.1917   72.3283    4.4171 H       1  UNL1        0.2106
     41 O          23.3591   69.9433    1.7991 O.co2   1  UNL1       -0.5466
     42 O          21.5277   69.6322    0.4769 O.co2   1  UNL1       -0.5466
     43 C          22.2781   70.3686    1.0995 C.2     1  UNL1        0.0799
@<TRIPOS>UNITY_ATOM_ATTR
2 1
charge -1
26 1
charge -1
41 1
charge -1
@<TRIPOS>BOND
     1     1     4    1
     2     1    24    1
     3     1     2    1
     4     1     3    2
     5    25    28    1
     6    25    24    1
     7    25    26    1
     8    25    27    2
     9     6    11    1
    10     6    12    1
    11    29    36    1
    12    29    37    1
    13     7     9    1
    14     7    13    1
    15     8    10    1
    16     8    14    1
    17     4     5    1
    18    28    36    1
    19    30    33    1
    20    30    38    1
    21    31    34    1
    22    31    39    1
    23    32    35    1
    24    32    40    1
    25    41    43   ar
    26    15    19    2
    27    42    43   ar
    28    16    22    2
    29    17    12    1
    30    17    19   ar
    31    17    20   ar
    32    18    19   ar
    33    18    22   ar
    34    18    23    1
    35     9    10    1
    36     9    11    1
    37    10    12    1
    38    11     5    1
    39    33    34    1
    40    33    35    1
    41    34    36    1
    42    35    37    1
    43    37    43    1
    44    20    21   ar
    45    21    22   ar
@<TRIPOS>MOLECULE
*****
 43 45 0 0 0
SMALL
GASTEIGER

@<TRIPOS>ATOM
      1 P          22.3580   71.1390   -1.7047 P.3     1  UNL1        0.2189
      2 O          23.1956   71.5469   -3.0279 O.co2   1  UNL1       -0.4371
      3 O          22.9092   69.9707   -0.9411 O.2     1  UNL1       -0.5170
      4 O          20.8402   70.9750   -2.2408 O.3     1  UNL1       -0.3112
      5 C          20.4341   71.7351   -3.3641 C.3     1  UNL1        0.1811
      6 O          18.4815   72.4883   -4.5462 O.3     1  UNL1       -0.3308
      7 O          16.8872   71.1799   -2.3696 O.3     1  UNL1       -0.3794
      8 O          16.7418   69.3572   -4.3927 O.3     1  UNL1       -0.3779
      9 C          18.1170   70.7639   -2.9637 C.3     1  UNL1        0.1713
     10 C          17.8680   70.2083   -4.3499 C.3     1  UNL1        0.1895
     11 C          18.9393   72.0100   -3.2629 C.3     1  UNL1        0.1764
     12 C          17.6756   71.4743   -5.1673 C.3     1  UNL1        0.2383
     13 H          16.3446   70.4007   -2.1694 H       1  UNL1        0.2105
     14 H          16.9139   68.5660   -3.8576 H       1  UNL1        0.2106
     15 O          16.0225   71.9429   -7.4087 O.2     1  UNL1       -0.2464
     16 O          19.3895   70.8311  -10.3534 O.2     1  UNL1       -0.2670
     17 N          18.0947   71.3150   -6.5310 N.ar    1  UNL1       -0.2551
     18 N          17.7007   71.3877   -8.8732 N.ar    1  UNL1       -0.2743
     19 C          17.1860   71.5762   -7.5838 C.ar    1  UNL1        0.3323
     20 C          19.3922   70.9064   -6.8147 C.ar    1  UNL1        0.0869
     21 C          19.8684   70.7313   -8.0489 C.ar    1  UNL1        0.0795
     22 C          18.9832   70.9820   -9.2052 C.ar    1  UNL1        0.2626
     23 H          17.0861   71.5614   -9.6225 H       1  UNL1        0.1734
     24 O          22.3013   72.5223   -0.8704 O.3     1  UNL1       -0.2703
     25 P          21.5484   72.8994    0.5097 P.3     1  UNL1        0.2208
     26 O          21.2747   71.4554    1.1882 O.co2   1  UNL1       -0.4371
     27 O          20.3185   73.7413    0.3301 O.2     1  UNL1       -0.5170
     28 O          22.6912   73.5711    1.4290 O.3     1  UNL1       -0.2858
     29 O          22.0706   74.7116    3.4097 O.3     1  UNL1       -0.3226
     30 O          25.9153   76.0997    2.8099 O.3     1  UNL1       -0.3794
     31 O          24.0728   75.8232    0.5598 O.3     1  UNL1       -0.3775
     32 O          25.3852   74.1130    4.8649 O.3     1  UNL1       -0.3792
     33 C          24.8491   75.1518    2.7581 C.3     1  UNL1        0.1718
     34 C          23.6979   75.7212    1.9286 C.3     1  UNL1        0.1968
     35 C          24.3883   74.8795    4.1918 C.3     1  UNL1        0.1723
     36 C          22.4543   74.8382    2.0400 C.3     1  UNL1        0.2706
     37 C          23.0756   74.1019    4.2168 C.3     1  UNL1        0.1830
     38 H          26.2245   76.2883    1.9099 H       1  UNL1        0.2105
     39 H          24.8615   76.3819    0.4817 H       1  UNL1        0.2106
     40 H          26.2258   74.5968    4.8559 H       1  UNL1        0.2106
     41 O          23.0012   75.1312    6.3231 O.co2   1  UNL1       -0.5466
     42 O          21.6125   73.3548    5.9839 O.co2   1  UNL1       -0.5466
     43 C          22.4701   74.1270    5.5825 C.2     1  UNL1        0.0799
@<TRIPOS>UNITY_ATOM_ATTR
2 1
charge -1
26 1
charge -1
41 1
charge -1
@<TRIPOS>BOND
     1     1     4    1
     2     1    24    1
     3     1     2    1
     4     1     3    2
     5    25    28    1
     6    25    24    1
     7    25    26    1
     8    25    27    2
     9     6    11    1
    10     6    12    1
    11    29    36    1
    12    29    37    1
    13     7     9    1
    14     7    13    1
    15     8    10    1
    16     8    14    1
    17     4     5    1
    18    28    36    1
    19    30    33    1
    20    30    38    1
    21    31    34    1
    22    31    39    1
    23    32    35    1
    24    32    40    1
    25    41    43   ar
    26    15    19    2
    27    42    43   ar
    28    16    22    2
    29    17    12    1
    30    17    19   ar
    31    17    20   ar
    32    18    19   ar
    33    18    22   ar
    34    18    23    1
    35     9    10    1
    36     9    11    1
    37    10    12    1
    38    11     5    1
    39    33    34    1
    40    33    35    1
    41    34    36    1
    42    35    37    1
    43    37    43    1
    44    20    21   ar
    45    21    22   ar
@<TRIPOS>MOLECULE
*****
 43 45 0 0 0
SMALL
GASTEIGER

@<TRIPOS>ATOM
      1 P          22.0561   70.4251   -0.2627 P.3     1  UNL1        0.2189
      2 O          20.8985   69.6159   -1.0526 O.co2   1  UNL1       -0.4371
      3 O          23.2360   69.5971    0.1545 O.2     1  UNL1       -0.5170
      4 O          21.2619   71.1698    0.9342 O.3     1  UNL1       -0.3112
      5 C          21.7237   72.4364    1.3666 C.3     1  UNL1        0.1811
      6 O          23.1609   72.7426    3.2688 O.3     1  UNL1       -0.3308
      7 O          20.6530   73.1215    4.8683 O.3     1  UNL1       -0.3794
      8 O          21.5122   75.6820    4.4919 O.3     1  UNL1       -0.3779
      9 C          20.9399   73.5239    3.5288 C.3     1  UNL1        0.1713
     10 C          21.8744   74.7152    3.5282 C.3     1  UNL1        0.1895
     11 C          21.8004   72.4437    2.8879 C.3     1  UNL1        0.1764
     12 C          23.2145   74.0650    3.8271 C.3     1  UNL1        0.2383
     13 H          20.1041   73.7963    5.2985 H       1  UNL1        0.2105
     14 H          20.6527   76.0666    4.2568 H       1  UNL1        0.2106
     15 O          25.5476   74.8358    5.2195 O.2     1  UNL1       -0.2464
     16 O          27.3636   76.7925    1.4622 O.2     1  UNL1       -0.2670
     17 N          24.3127   74.7768    3.2371 N.ar    1  UNL1       -0.2551
     18 N          26.4494   75.8105    3.3471 N.ar    1  UNL1       -0.2743
     19 C          25.4382   75.1165    4.0245 C.ar    1  UNL1        0.3323
     20 C          24.2690   75.1294    1.8937 C.ar    1  UNL1        0.0869
     21 C          25.2407   75.7908    1.2620 C.ar    1  UNL1        0.0795
     22 C          26.4511   76.1839    2.0129 C.ar    1  UNL1        0.2626
     23 H          27.2422   76.0596    3.8750 H       1  UNL1        0.1734
     24 O          22.4072   71.6360   -1.2744 O.3     1  UNL1       -0.2703
     25 P          22.5407   71.6684   -2.8852 P.3     1  UNL1        0.2208
     26 O          23.5166   70.4161   -3.2007 O.co2   1  UNL1       -0.4371
     27 O          23.0196   72.9799   -3.4371 O.2     1  UNL1       -0.5170
     28 O          21.0936   71.2031   -3.4253 O.3     1  UNL1       -0.2858
     29 O          19.6216   71.9585   -5.1199 O.3     1  UNL1       -0.3226
     30 O          16.9919   71.0498   -2.0659 O.3     1  UNL1       -0.3794
     31 O          19.5058   72.4243   -1.4955 O.3     1  UNL1       -0.3775
     32 O          17.2525   69.2657   -4.3463 O.3     1  UNL1       -0.3792
     33 C          18.1774   70.9114   -2.8492 C.3     1  UNL1        0.1718
     34 C          18.9781   72.2129   -2.7999 C.3     1  UNL1        0.1968
     35 C          17.7598   70.5975   -4.2876 C.3     1  UNL1        0.1723
     36 C          20.1305   72.1845   -3.8049 C.3     1  UNL1        0.2706
     37 C          18.9399   70.7126   -5.2480 C.3     1  UNL1        0.1830
     38 H          17.2325   71.2496   -1.1475 H       1  UNL1        0.2105
     39 H          18.7801   72.4431   -0.8527 H       1  UNL1        0.2106
     40 H          16.5009   69.1789   -3.7393 H       1  UNL1        0.2106
     41 O          17.1164   70.6712   -6.7226 O.co2   1  UNL1       -0.5466
     42 O          19.1977   70.7953   -7.6455 O.co2   1  UNL1       -0.5466
     43 C          18.4699   70.7317   -6.6661 C.2     1  UNL1        0.0799
@<TRIPOS>UNITY_ATOM_ATTR
2 1
charge -1
26 1
charge -1
41 1
charge -1
@<TRIPOS>BOND
     1     1     4    1
     2     1    24    1
     3     1     2    1
     4     1     3    2
     5    25    28    1
     6    25    24    1
     7    25    26    1
     8    25    27    2
     9     6    11    1
    10     6    12    1
    11    29    36    1
    12    29    37    1
    13     7     9    1
    14     7    13    1
    15     8    10    1
    16     8    14    1
    17     4     5    1
    18    28    36    1
    19    30    33    1
    20    30    38    1
    21    31    34    1
    22    31    39    1
    23    32    35    1
    24    32    40    1
    25    41    43   ar
    26    15    19    2
    27    42    43   ar
    28    16    22    2
    29    17    12    1
    30    17    19   ar
    31    17    20   ar
    32    18    19   ar
    33    18    22   ar
    34    18    23    1
    35     9    10    1
    36     9    11    1
    37    10    12    1
    38    11     5    1
    39    33    34    1
    40    33    35    1
    41    34    36    1
    42    35    37    1
    43    37    43    1
    44    20    21   ar
    45    21    22   ar
@<TRIPOS>MOLECULE
*****
 43 45 0 0 0
SMALL
GASTEIGER

@<TRIPOS>ATOM
      1 P          23.4892   73.4461   -3.6602 P.3     1  UNL1        0.2189
      2 O          22.3587   74.4669   -3.1135 O.co2   1  UNL1       -0.4371
      3 O          24.9041   73.9132   -3.4819 O.2     1  UNL1       -0.5170
      4 O          23.0358   73.1439   -5.1837 O.3     1  UNL1       -0.3112
      5 C          21.8048   73.6736   -5.6404 C.3     1  UNL1        0.1811
      6 O          21.2530   72.8035   -7.8121 O.3     1  UNL1       -0.3308
      7 O          21.7224   75.5813   -8.8392 O.3     1  UNL1       -0.3794
      8 O          19.0024   75.4507   -8.6957 O.3     1  UNL1       -0.3779
      9 C          21.1532   75.1605   -7.5993 C.3     1  UNL1        0.1713
     10 C          19.7502   74.6351   -7.8181 C.3     1  UNL1        0.1895
     11 C          21.8936   73.9110   -7.1425 C.3     1  UNL1        0.1764
     12 C          20.0166   73.2527   -8.3889 C.3     1  UNL1        0.2383
     13 H          21.2654   76.3785   -9.1512 H       1  UNL1        0.2105
     14 H          18.8592   76.3192   -8.2868 H       1  UNL1        0.2106
     15 O          19.0074   71.3032  -10.1660 O.2     1  UNL1       -0.2464
     16 O          16.0400   69.7085   -7.0204 O.2     1  UNL1       -0.2670
     17 N          18.9803   72.3151   -8.0603 N.ar    1  UNL1       -0.2551
     18 N          17.5297   70.5115   -8.5979 N.ar    1  UNL1       -0.2743
     19 C          18.5454   71.3766   -9.0258 C.ar    1  UNL1        0.3323
     20 C          18.4074   72.3300   -6.7944 C.ar    1  UNL1        0.0869
     21 C          17.4403   71.4989   -6.4011 C.ar    1  UNL1        0.0795
     22 C          16.9285   70.4883   -7.3499 C.ar    1  UNL1        0.2626
     23 H          17.2091   69.8505   -9.2534 H       1  UNL1        0.1734
     24 O          23.1338   72.0673   -2.8951 O.3     1  UNL1       -0.2703
     25 P          21.7225   71.4770   -2.3721 P.3     1  UNL1        0.2208
     26 O          22.0570   69.9196   -2.0840 O.co2   1  UNL1       -0.4371
     27 O          20.5750   71.6990   -3.3144 O.2     1  UNL1       -0.5170
     28 O          21.5233   72.1280   -0.9095 O.3     1  UNL1       -0.2858
     29 O          23.0809   73.5344    0.1883 O.3     1  UNL1       -0.3226
     30 O          21.0082   71.9238    3.3786 O.3     1  UNL1       -0.3794
     31 O          21.7877   70.2439    1.1193 O.3     1  UNL1       -0.3775
     32 O          20.4987   74.6601    2.5394 O.3     1  UNL1       -0.3792
     33 C          21.1806   72.4027    2.0448 C.3     1  UNL1        0.1718
     34 C          22.2509   71.5715    1.3370 C.3     1  UNL1        0.1968
     35 C          21.6099   73.8697    2.1209 C.3     1  UNL1        0.1723
     36 C          22.6268   72.1947   -0.0081 C.3     1  UNL1        0.2706
     37 C          22.0892   74.3809    0.7654 C.3     1  UNL1        0.1830
     38 H          20.7353   70.9931    3.3554 H       1  UNL1        0.2105
     39 H          21.5472   69.8424    1.9686 H       1  UNL1        0.2106
     40 H          20.1839   74.3449    3.4010 H       1  UNL1        0.2106
     41 O          23.4265   75.7554    2.1160 O.co2   1  UNL1       -0.5466
     42 O          22.8336   76.5679    0.0697 O.co2   1  UNL1       -0.5466
     43 C          22.8050   75.6840    0.9128 C.2     1  UNL1        0.0799
@<TRIPOS>UNITY_ATOM_ATTR
2 1
charge -1
26 1
charge -1
41 1
charge -1
@<TRIPOS>BOND
     1     1     4    1
     2     1    24    1
     3     1     2    1
     4     1     3    2
     5    25    28    1
     6    25    24    1
     7    25    26    1
     8    25    27    2
     9     6    11    1
    10     6    12    1
    11    29    36    1
    12    29    37    1
    13     7     9    1
    14     7    13    1
    15     8    10    1
    16     8    14    1
    17     4     5    1
    18    28    36    1
    19    30    33    1
    20    30    38    1
    21    31    34    1
    22    31    39    1
    23    32    35    1
    24    32    40    1
    25    41    43   ar
    26    15    19    2
    27    42    43   ar
    28    16    22    2
    29    17    12    1
    30    17    19   ar
    31    17    20   ar
    32    18    19   ar
    33    18    22   ar
    34    18    23    1
    35     9    10    1
    36     9    11    1
    37    10    12    1
    38    11     5    1
    39    33    34    1
    40    33    35    1
    41    34    36    1
    42    35    37    1
    43    37    43    1
    44    20    21   ar
    45    21    22   ar
@<TRIPOS>MOLECULE
*****
 43 45 0 0 0
SMALL
GASTEIGER

@<TRIPOS>ATOM
      1 P          22.8949   71.9468   -3.0996 P.3     1  UNL1        0.2189
      2 O          23.6992   70.5497   -3.2408 O.co2   1  UNL1       -0.4371
      3 O          22.6752   72.4118   -1.6899 O.2     1  UNL1       -0.5170
      4 O          21.5570   71.7155   -3.9797 O.3     1  UNL1       -0.3112
      5 C          20.6852   70.6595   -3.6199 C.3     1  UNL1        0.1811
      6 O          18.8859   71.8340   -4.6974 O.3     1  UNL1       -0.3308
      7 O          17.1269   70.7564   -2.5211 O.3     1  UNL1       -0.3794
      8 O          16.5720   69.0968   -4.6125 O.3     1  UNL1       -0.3779
      9 C          18.2348   70.1387   -3.1766 C.3     1  UNL1        0.1713
     10 C          17.8437   69.7098   -4.5750 C.3     1  UNL1        0.1895
     11 C          19.2764   71.2143   -3.4529 C.3     1  UNL1        0.1764
     12 C          17.8804   71.0271   -5.3308 C.3     1  UNL1        0.2383
     13 H          16.4480   70.0887   -2.3343 H       1  UNL1        0.2105
     14 H          16.6006   68.2622   -4.1179 H       1  UNL1        0.2106
     15 O          16.0172   70.4586   -7.3757 O.2     1  UNL1       -0.2464
     16 O          19.3059   70.3899  -10.6042 O.2     1  UNL1       -0.2670
     17 N          18.2225   70.8557   -6.7144 N.ar    1  UNL1       -0.2551
     18 N          17.6571   70.4239   -8.9816 N.ar    1  UNL1       -0.2743
     19 C          17.2105   70.5723   -7.6618 C.ar    1  UNL1        0.3323
     20 C          19.5464   70.9701   -7.1208 C.ar    1  UNL1        0.0869
     21 C          19.9567   70.8261   -8.3825 C.ar    1  UNL1        0.0795
     22 C          18.9624   70.5279   -9.4341 C.ar    1  UNL1        0.2626
     23 H          16.9709   70.2242   -9.6588 H       1  UNL1        0.1734
     24 O          23.7615   72.9586   -4.0150 O.3     1  UNL1       -0.2703
     25 P          23.7866   74.5738   -4.0803 P.3     1  UNL1        0.2208
     26 O          25.3672   74.9210   -4.0420 O.co2   1  UNL1       -0.4371
     27 O          22.9796   75.2460   -3.0076 O.2     1  UNL1       -0.5170
     28 O          23.3279   74.9297   -5.5854 O.3     1  UNL1       -0.2858
     29 O          21.3016   75.8385   -6.4083 O.3     1  UNL1       -0.3226
     30 O          22.4166   73.3349   -9.4997 O.3     1  UNL1       -0.3794
     31 O          22.6926   72.4721   -6.7223 O.3     1  UNL1       -0.3775
     32 O          22.7575   76.2106   -9.7556 O.3     1  UNL1       -0.3792
     33 C          22.6262   74.2223   -8.4012 C.3     1  UNL1        0.1718
     34 C          21.9892   73.6359   -7.1410 C.3     1  UNL1        0.1968
     35 C          21.9803   75.5655   -8.7484 C.3     1  UNL1        0.1723
     36 C          21.9913   74.6560   -6.0016 C.3     1  UNL1        0.2706
     37 C          21.9064   76.4799   -7.5290 C.3     1  UNL1        0.1830
     38 H          22.8186   72.4744   -9.3017 H       1  UNL1        0.2105
     39 H          22.6955   71.8206   -7.4406 H       1  UNL1        0.2106
     40 H          22.8125   75.6389  -10.5372 H       1  UNL1        0.2106
     41 O          20.2370   77.4104   -8.8886 O.co2   1  UNL1       -0.5466
     42 O          20.9324   78.6457   -7.1027 O.co2   1  UNL1       -0.5466
     43 C          20.9948   77.6352   -7.7867 C.2     1  UNL1        0.0799
@<TRIPOS>UNITY_ATOM_ATTR
2 1
charge -1
26 1
charge -1
41 1
charge -1
@<TRIPOS>BOND
     1     1     4    1
     2     1    24    1
     3     1     2    1
     4     1     3    2
     5    25    28    1
     6    25    24    1
     7    25    26    1
     8    25    27    2
     9     6    11    1
    10     6    12    1
    11    29    36    1
    12    29    37    1
    13     7     9    1
    14     7    13    1
    15     8    10    1
    16     8    14    1
    17     4     5    1
    18    28    36    1
    19    30    33    1
    20    30    38    1
    21    31    34    1
    22    31    39    1
    23    32    35    1
    24    32    40    1
    25    41    43   ar
    26    15    19    2
    27    42    43   ar
    28    16    22    2
    29    17    12    1
    30    17    19   ar
    31    17    20   ar
    32    18    19   ar
    33    18    22   ar
    34    18    23    1
    35     9    10    1
    36     9    11    1
    37    10    12    1
    38    11     5    1
    39    33    34    1
    40    33    35    1
    41    34    36    1
    42    35    37    1
    43    37    43    1
    44    20    21   ar
    45    21    22   ar
@<TRIPOS>MOLECULE
*****
 43 45 0 0 0
SMALL
GASTEIGER

@<TRIPOS>ATOM
      1 P          22.8982   72.8027   -3.3360 P.3     1  UNL1        0.2189
      2 O          23.4600   74.0182   -4.2447 O.co2   1  UNL1       -0.4371
      3 O          23.5451   71.4722   -3.5875 O.2     1  UNL1       -0.5170
      4 O          21.2967   72.8587   -3.5593 O.3     1  UNL1       -0.3112
      5 C          20.5820   71.6391   -3.6387 C.3     1  UNL1        0.1811
      6 O          18.5901   72.3393   -4.7874 O.3     1  UNL1       -0.3308
      7 O          17.0719   71.1555   -2.4884 O.3     1  UNL1       -0.3794
      8 O          16.8467   69.2298   -4.4059 O.3     1  UNL1       -0.3779
      9 C          18.2779   70.7025   -3.1039 C.3     1  UNL1        0.1713
     10 C          17.9766   70.0760   -4.4489 C.3     1  UNL1        0.1895
     11 C          19.0928   71.9267   -3.4981 C.3     1  UNL1        0.1764
     12 C          17.7587   71.2983   -5.3244 C.3     1  UNL1        0.2383
     13 H          16.5344   70.3908   -2.2279 H       1  UNL1        0.2105
     14 H          17.0357   68.4669   -3.8365 H       1  UNL1        0.2106
     15 O          16.0440   70.1793   -7.2697 O.2     1  UNL1       -0.2464
     16 O          19.2793   70.4502  -10.5413 O.2     1  UNL1       -0.2670
     17 N          18.1273   71.0654   -6.6922 N.ar    1  UNL1       -0.2551
     18 N          17.6573   70.3143   -8.8971 N.ar    1  UNL1       -0.2743
     19 C          17.1910   70.4981   -7.5887 C.ar    1  UNL1        0.3323
     20 C          19.4020   71.3989   -7.1335 C.ar    1  UNL1        0.0869
     21 C          19.8320   71.2179   -8.3837 C.ar    1  UNL1        0.0795
     22 C          18.9160   70.6296   -9.3829 C.ar    1  UNL1        0.2626
     23 H          17.0240   69.9190   -9.5389 H       1  UNL1        0.1734
     24 O          23.0751   73.3634   -1.8303 O.3     1  UNL1       -0.2703
     25 P          22.9670   74.8633   -1.2367 P.3     1  UNL1        0.2208
     26 O          21.7753   75.5224   -2.1117 O.co2   1  UNL1       -0.4371
     27 O          24.2559   75.6326   -1.2687 O.2     1  UNL1       -0.5170
     28 O          22.3354   74.6762    0.2359 O.3     1  UNL1       -0.2858
     29 O          23.3011   75.1194    2.3525 O.3     1  UNL1       -0.3226
     30 O          20.7938   71.9524    3.2190 O.3     1  UNL1       -0.3794
     31 O          22.3943   71.9482    0.7751 O.3     1  UNL1       -0.3775
     32 O          20.0551   74.6539    3.9983 O.3     1  UNL1       -0.3792
     33 C          21.2141   73.1320    2.5336 C.3     1  UNL1        0.1718
     34 C          22.5542   72.8733    1.8444 C.3     1  UNL1        0.1968
     35 C          21.3538   74.2539    3.5649 C.3     1  UNL1        0.1723
     36 C          23.1466   74.1719    1.2952 C.3     1  UNL1        0.2706
     37 C          22.0664   75.4674    2.9750 C.3     1  UNL1        0.1830
     38 H          20.6983   71.2256    2.5835 H       1  UNL1        0.2105
     39 H          22.0185   71.1220    1.1164 H       1  UNL1        0.2106
     40 H          19.5908   73.8905    4.3758 H       1  UNL1        0.2106
     41 O          23.2253   77.4269    3.5397 O.co2   1  UNL1       -0.5466
     42 O          22.2113   76.2921    5.2378 O.co2   1  UNL1       -0.5466
     43 C          22.4888   76.4108    4.0538 C.2     1  UNL1        0.0799
@<TRIPOS>UNITY_ATOM_ATTR
2 1
charge -1
26 1
charge -1
41 1
charge -1
@<TRIPOS>BOND
     1     1     4    1
     2     1    24    1
     3     1     2    1
     4     1     3    2
     5    25    28    1
     6    25    24    1
     7    25    26    1
     8    25    27    2
     9     6    11    1
    10     6    12    1
    11    29    36    1
    12    29    37    1
    13     7     9    1
    14     7    13    1
    15     8    10    1
    16     8    14    1
    17     4     5    1
    18    28    36    1
    19    30    33    1
    20    30    38    1
    21    31    34    1
    22    31    39    1
    23    32    35    1
    24    32    40    1
    25    41    43   ar
    26    15    19    2
    27    42    43   ar
    28    16    22    2
    29    17    12    1
    30    17    19   ar
    31    17    20   ar
    32    18    19   ar
    33    18    22   ar
    34    18    23    1
    35     9    10    1
    36     9    11    1
    37    10    12    1
    38    11     5    1
    39    33    34    1
    40    33    35    1
    41    34    36    1
    42    35    37    1
    43    37    43    1
    44    20    21   ar
    45    21    22   ar
@<TRIPOS>MOLECULE
*****
 43 45 0 0 0
SMALL
GASTEIGER

@<TRIPOS>ATOM
      1 P          19.8972   70.1619   -2.4263 P.3     1  UNL1        0.2189
      2 O          21.0704   69.1431   -2.8785 O.co2   1  UNL1       -0.4371
      3 O          18.5895   69.5104   -2.0840 O.2     1  UNL1       -0.5170
      4 O          19.8477   71.2522   -3.6207 O.3     1  UNL1       -0.3112
      5 C          21.0696   71.7637   -4.1204 C.3     1  UNL1        0.1811
      6 O          21.0516   73.3571   -5.9199 O.3     1  UNL1       -0.3308
      7 O          19.5583   75.1680   -4.0538 O.3     1  UNL1       -0.3794
      8 O          17.5724   74.1751   -5.6370 O.3     1  UNL1       -0.3779
      9 C          19.4803   73.7490   -4.1912 C.3     1  UNL1        0.1713
     10 C          18.7287   73.3852   -5.4541 C.3     1  UNL1        0.1895
     11 C          20.8793   73.2286   -4.4919 C.3     1  UNL1        0.1764
     12 C          19.7776   73.6270   -6.5261 C.3     1  UNL1        0.2383
     13 H          18.6761   75.5235   -3.8613 H       1  UNL1        0.2105
     14 H          16.9355   73.9845   -4.9299 H       1  UNL1        0.2106
     15 O          18.3004   74.3038   -8.8361 O.2     1  UNL1       -0.2464
     16 O          19.1983   70.2427  -10.8225 O.2     1  UNL1       -0.2670
     17 N          19.6091   72.7653   -7.6619 N.ar    1  UNL1       -0.2551
     18 N          18.7481   72.2801   -9.8228 N.ar    1  UNL1       -0.2743
     19 C          18.8474   73.2013   -8.7718 C.ar    1  UNL1        0.3323
     20 C          20.1956   71.5056   -7.6699 C.ar    1  UNL1        0.0869
     21 C          20.0923   70.6387   -8.6791 C.ar    1  UNL1        0.0795
     22 C          19.3129   71.0161   -9.8764 C.ar    1  UNL1        0.2626
     23 H          18.2210   72.5604  -10.6057 H       1  UNL1        0.1734
     24 O          20.5782   70.9836   -1.2122 O.3     1  UNL1       -0.2703
     25 P          21.8475   70.6336   -0.2741 P.3     1  UNL1        0.2208
     26 O          23.0758   70.5605   -1.3258 O.co2   1  UNL1       -0.4371
     27 O          21.6739   69.3980    0.5609 O.2     1  UNL1       -0.5170
     28 O          22.1152   71.9810    0.5717 O.3     1  UNL1       -0.2858
     29 O          21.5926   72.5441    2.8120 O.3     1  UNL1       -0.3226
     30 O          21.1651   76.1856    0.9082 O.3     1  UNL1       -0.3794
     31 O          20.1586   73.7393   -0.3315 O.3     1  UNL1       -0.3775
     32 O          23.5124   75.6590    2.5404 O.3     1  UNL1       -0.3792
     33 C          21.7175   74.8881    1.1301 C.3     1  UNL1        0.1718
     34 C          20.6147   73.8356    1.0129 C.3     1  UNL1        0.1968
     35 C          22.3262   74.8670    2.5341 C.3     1  UNL1        0.1723
     36 C          21.1164   72.4645    1.4680 C.3     1  UNL1        0.2706
     37 C          22.6850   73.4477    2.9644 C.3     1  UNL1        0.1830
     38 H          20.7724   76.2228    0.0218 H       1  UNL1        0.2105
     39 H          19.8390   74.6059   -0.6269 H       1  UNL1        0.2106
     40 H          23.2978   76.5649    2.2681 H       1  UNL1        0.2106
     41 O          22.1243   72.5227    5.0456 O.co2   1  UNL1       -0.5466
     42 O          23.8284   74.0371    5.0056 O.co2   1  UNL1       -0.5466
     43 C          22.9638   73.3926    4.4312 C.2     1  UNL1        0.0799
@<TRIPOS>UNITY_ATOM_ATTR
2 1
charge -1
26 1
charge -1
41 1
charge -1
@<TRIPOS>BOND
     1     1     4    1
     2     1    24    1
     3     1     2    1
     4     1     3    2
     5    25    28    1
     6    25    24    1
     7    25    26    1
     8    25    27    2
     9     6    11    1
    10     6    12    1
    11    29    36    1
    12    29    37    1
    13     7     9    1
    14     7    13    1
    15     8    10    1
    16     8    14    1
    17     4     5    1
    18    28    36    1
    19    30    33    1
    20    30    38    1
    21    31    34    1
    22    31    39    1
    23    32    35    1
    24    32    40    1
    25    41    43   ar
    26    15    19    2
    27    42    43   ar
    28    16    22    2
    29    17    12    1
    30    17    19   ar
    31    17    20   ar
    32    18    19   ar
    33    18    22   ar
    34    18    23    1
    35     9    10    1
    36     9    11    1
    37    10    12    1
    38    11     5    1
    39    33    34    1
    40    33    35    1
    41    34    36    1
    42    35    37    1
    43    37    43    1
    44    20    21   ar
    45    21    22   ar
@<TRIPOS>MOLECULE
*****
 43 45 0 0 0
SMALL
GASTEIGER

@<TRIPOS>ATOM
      1 P          19.7788   70.0115   -2.6068 P.3     1  UNL1        0.2189
      2 O          21.1318   69.2153   -2.9996 O.co2   1  UNL1       -0.4371
      3 O          18.6252   69.1404   -2.2043 O.2     1  UNL1       -0.5170
      4 O          19.5173   70.9824   -3.8744 O.3     1  UNL1       -0.3112
      5 C          20.1253   72.2610   -3.8836 C.3     1  UNL1        0.1811
      6 O          19.0978   73.6411   -5.5621 O.3     1  UNL1       -0.3308
      7 O          16.8237   73.9687   -3.6353 O.3     1  UNL1       -0.3794
      8 O          15.8697   72.0930   -5.3695 O.3     1  UNL1       -0.3779
      9 C          17.6447   72.8262   -3.8782 C.3     1  UNL1        0.1713
     10 C          17.2684   72.1808   -5.1951 C.3     1  UNL1        0.1895
     11 C          19.0597   73.3150   -4.1558 C.3     1  UNL1        0.1764
     12 C          17.9259   73.1102   -6.2010 C.3     1  UNL1        0.2383
     13 H          15.9144   73.6815   -3.4553 H       1  UNL1        0.2105
     14 H          15.4984   71.4899   -4.7060 H       1  UNL1        0.2106
     15 O          17.3324   74.0111   -8.8111 O.2     1  UNL1       -0.2464
     16 O          19.4777   70.4150  -10.7370 O.2     1  UNL1       -0.2670
     17 N          18.3173   72.4288   -7.4024 N.ar    1  UNL1       -0.2551
     18 N          18.4006   72.2187   -9.7678 N.ar    1  UNL1       -0.2743
     19 C          17.9686   72.9659   -8.6641 C.ar    1  UNL1        0.3323
     20 C          19.0393   71.2440   -7.3240 C.ar    1  UNL1        0.0869
     21 C          19.4441   70.5431   -8.3849 C.ar    1  UNL1        0.0795
     22 C          19.1201   71.0350   -9.7401 C.ar    1  UNL1        0.2626
     23 H          18.1678   72.5716  -10.6570 H       1  UNL1        0.1734
     24 O          20.2803   71.0363   -1.4616 O.3     1  UNL1       -0.2703
     25 P          21.4348   70.8913   -0.3393 P.3     1  UNL1        0.2208
     26 O          22.7637   71.4063   -1.1069 O.co2   1  UNL1       -0.4371
     27 O          21.5540   69.5145    0.2473 O.2     1  UNL1       -0.5170
     28 O          21.1098   72.0506    0.7344 O.3     1  UNL1       -0.2858
     29 O          21.8002   74.2419    1.3094 O.3     1  UNL1       -0.3226
     30 O          21.9889   72.3160    4.9595 O.3     1  UNL1       -0.3794
     31 O          22.9462   70.9942    2.5366 O.3     1  UNL1       -0.3775
     32 O          19.7948   74.1330    4.3800 O.3     1  UNL1       -0.3792
     33 C          21.4859   72.5799    3.6498 C.3     1  UNL1        0.1718
     34 C          22.5990   72.3714    2.6226 C.3     1  UNL1        0.1968
     35 C          20.9942   74.0287    3.6151 C.3     1  UNL1        0.1723
     36 C          22.1671   72.8635    1.2405 C.3     1  UNL1        0.2706
     37 C          20.7037   74.4844    2.1880 C.3     1  UNL1        0.1830
     38 H          22.3072   71.4007    5.0055 H       1  UNL1        0.2105
     39 H          23.2209   70.6753    3.4102 H       1  UNL1        0.2106
     40 H          19.9660   73.8457    5.2905 H       1  UNL1        0.2106
     41 O          21.0555   76.4567    0.9683 O.co2   1  UNL1       -0.5466
     42 O          20.0300   76.6560    2.9951 O.co2   1  UNL1       -0.5466
     43 C          20.5466   75.9689    2.1268 C.2     1  UNL1        0.0799
@<TRIPOS>UNITY_ATOM_ATTR
2 1
charge -1
26 1
charge -1
41 1
charge -1
@<TRIPOS>BOND
     1     1     4    1
     2     1    24    1
     3     1     2    1
     4     1     3    2
     5    25    28    1
     6    25    24    1
     7    25    26    1
     8    25    27    2
     9     6    11    1
    10     6    12    1
    11    29    36    1
    12    29    37    1
    13     7     9    1
    14     7    13    1
    15     8    10    1
    16     8    14    1
    17     4     5    1
    18    28    36    1
    19    30    33    1
    20    30    38    1
    21    31    34    1
    22    31    39    1
    23    32    35    1
    24    32    40    1
    25    41    43   ar
    26    15    19    2
    27    42    43   ar
    28    16    22    2
    29    17    12    1
    30    17    19   ar
    31    17    20   ar
    32    18    19   ar
    33    18    22   ar
    34    18    23    1
    35     9    10    1
    36     9    11    1
    37    10    12    1
    38    11     5    1
    39    33    34    1
    40    33    35    1
    41    34    36    1
    42    35    37    1
    43    37    43    1
    44    20    21   ar
    45    21    22   ar
@<TRIPOS>MOLECULE
*****
 43 45 0 0 0
SMALL
GASTEIGER

@<TRIPOS>ATOM
      1 P          23.1851   74.2369   -4.2663 P.3     1  UNL1        0.2189
      2 O          23.9950   75.4297   -5.0013 O.co2   1  UNL1       -0.4371
      3 O          23.9089   72.9239   -4.2046 O.2     1  UNL1       -0.5170
      4 O          21.7544   74.2157   -5.0217 O.3     1  UNL1       -0.3112
      5 C          21.6799   74.7191   -6.3429 C.3     1  UNL1        0.1811
      6 O          21.4391   72.3630   -6.7536 O.3     1  UNL1       -0.3308
      7 O          21.9617   73.0013   -9.6365 O.3     1  UNL1       -0.3794
      8 O          19.2507   72.7142   -9.5717 O.3     1  UNL1       -0.3779
      9 C          21.2479   73.7579   -8.6585 C.3     1  UNL1        0.1713
     10 C          19.9002   73.1240   -8.3865 C.3     1  UNL1        0.1895
     11 C          21.9567   73.5855   -7.3220 C.3     1  UNL1        0.1764
     12 C          20.2762   71.9553   -7.4917 C.3     1  UNL1        0.2383
     13 H          21.5275   73.0959  -10.4991 H       1  UNL1        0.2105
     14 H          19.0319   73.4939  -10.1067 H       1  UNL1        0.2106
     15 O          18.0269   70.3742   -8.1379 O.2     1  UNL1       -0.2464
     16 O          16.3327   70.7131   -3.8649 O.2     1  UNL1       -0.2670
     17 N          19.2320   71.6148   -6.5672 N.ar    1  UNL1       -0.2551
     18 N          17.1847   70.5454   -6.0094 N.ar    1  UNL1       -0.2743
     19 C          18.1454   70.8148   -6.9930 C.ar    1  UNL1        0.3323
     20 C          19.2912   72.0702   -5.2557 C.ar    1  UNL1        0.0869
     21 C          18.3679   71.8050   -4.3294 C.ar    1  UNL1        0.0795
     22 C          17.1998   70.9763   -4.6927 C.ar    1  UNL1        0.2626
     23 H          16.4178   69.9919   -6.2828 H       1  UNL1        0.1734
     24 O          22.8260   74.8761   -2.8257 O.3     1  UNL1       -0.2703
     25 P          23.7585   75.1967   -1.5445 P.3     1  UNL1        0.2208
     26 O          23.3281   76.7043   -1.1419 O.co2   1  UNL1       -0.4371
     27 O          25.2284   75.0186   -1.7927 O.2     1  UNL1       -0.5170
     28 O          23.1623   74.2739   -0.3632 O.3     1  UNL1       -0.2858
     29 O          21.8422   72.3094   -0.4472 O.3     1  UNL1       -0.3226
     30 O          20.4317   74.1240    2.9859 O.3     1  UNL1       -0.3794
     31 O          20.9779   75.7065    0.5917 O.3     1  UNL1       -0.3775
     32 O          22.2122   71.8335    3.1720 O.3     1  UNL1       -0.3792
     33 C          21.4049   73.7779    2.0004 C.3     1  UNL1        0.1718
     34 C          20.9496   74.2844    0.6316 C.3     1  UNL1        0.1968
     35 C          21.5414   72.2537    1.9855 C.3     1  UNL1        0.1723
     36 C          21.8459   73.7371   -0.4801 C.3     1  UNL1        0.2706
     37 C          22.3433   71.7780    0.7774 C.3     1  UNL1        0.1830
     38 H          20.3279   75.0882    3.0134 H       1  UNL1        0.2105
     39 H          20.4115   76.0605    1.2947 H       1  UNL1        0.2106
     40 H          21.7122   72.1301    3.9484 H       1  UNL1        0.2106
     41 O          23.1789   69.6358    1.2403 O.co2   1  UNL1       -0.5466
     42 O          21.3092   69.7647   -0.0584 O.co2   1  UNL1       -0.5466
     43 C          22.1943   70.3034    0.5891 C.2     1  UNL1        0.0799
@<TRIPOS>UNITY_ATOM_ATTR
2 1
charge -1
26 1
charge -1
41 1
charge -1
@<TRIPOS>BOND
     1     1     4    1
     2     1    24    1
     3     1     2    1
     4     1     3    2
     5    25    28    1
     6    25    24    1
     7    25    26    1
     8    25    27    2
     9     6    11    1
    10     6    12    1
    11    29    36    1
    12    29    37    1
    13     7     9    1
    14     7    13    1
    15     8    10    1
    16     8    14    1
    17     4     5    1
    18    28    36    1
    19    30    33    1
    20    30    38    1
    21    31    34    1
    22    31    39    1
    23    32    35    1
    24    32    40    1
    25    41    43   ar
    26    15    19    2
    27    42    43   ar
    28    16    22    2
    29    17    12    1
    30    17    19   ar
    31    17    20   ar
    32    18    19   ar
    33    18    22   ar
    34    18    23    1
    35     9    10    1
    36     9    11    1
    37    10    12    1
    38    11     5    1
    39    33    34    1
    40    33    35    1
    41    34    36    1
    42    35    37    1
    43    37    43    1
    44    20    21   ar
    45    21    22   ar
@<TRIPOS>MOLECULE
*****
 43 45 0 0 0
SMALL
GASTEIGER

@<TRIPOS>ATOM
      1 P          22.2736   73.4810   -5.2797 P.3     1  UNL1        0.2189
      2 O          22.5901   74.9105   -5.9691 O.co2   1  UNL1       -0.4371
      3 O          23.4785   72.7345   -4.7870 O.2     1  UNL1       -0.5170
      4 O          21.3710   72.7105   -6.3796 O.3     1  UNL1       -0.3112
      5 C          20.7924   73.4655   -7.4283 C.3     1  UNL1        0.1811
      6 O          20.0370   71.2168   -7.8156 O.3     1  UNL1       -0.3308
      7 O          18.4949   72.3320  -10.1328 O.3     1  UNL1       -0.3794
      8 O          16.5766   72.0664   -8.2130 O.3     1  UNL1       -0.3779
      9 C          18.7607   72.9181   -8.8584 C.3     1  UNL1        0.1713
     10 C          17.9105   72.2611   -7.7917 C.3     1  UNL1        0.1895
     11 C          20.1672   72.5128   -8.4391 C.3     1  UNL1        0.1764
     12 C          18.6480   70.9530   -7.5618 C.3     1  UNL1        0.2383
     13 H          17.6015   72.5769  -10.4217 H       1  UNL1        0.2105
     14 H          16.1503   72.9282   -8.3455 H       1  UNL1        0.2106
     15 O          16.3176   69.7150   -6.5554 O.2     1  UNL1       -0.2464
     16 O          18.2013   69.1420   -2.3880 O.2     1  UNL1       -0.2670
     17 N          18.5023   70.4708   -6.2175 N.ar    1  UNL1       -0.2551
     18 N          17.2576   69.4317   -4.4805 N.ar    1  UNL1       -0.2743
     19 C          17.2897   69.8643   -5.8127 C.ar    1  UNL1        0.3323
     20 C          19.5528   70.5989   -5.3170 C.ar    1  UNL1        0.0869
     21 C          19.5074   70.1816   -4.0503 C.ar    1  UNL1        0.0795
     22 C          18.2762   69.5377   -3.5474 C.ar    1  UNL1        0.2626
     23 H          16.4230   69.0081   -4.1750 H       1  UNL1        0.1734
     24 O          21.2011   73.8613   -4.1316 O.3     1  UNL1       -0.2703
     25 P          21.4093   74.3783   -2.6140 P.3     1  UNL1        0.2208
     26 O          19.9708   75.0202   -2.2414 O.co2   1  UNL1       -0.4371
     27 O          22.5692   75.3148   -2.4361 O.2     1  UNL1       -0.5170
     28 O          21.4951   73.0310   -1.7309 O.3     1  UNL1       -0.2858
     29 O          23.1197   73.3572   -0.0387 O.3     1  UNL1       -0.3226
     30 O          21.8928   69.4839    0.7094 O.3     1  UNL1       -0.3794
     31 O          22.3309   70.3953   -2.0314 O.3     1  UNL1       -0.3775
     32 O          20.9904   71.6560    2.4177 O.3     1  UNL1       -0.3792
     33 C          21.7456   70.8377    0.2811 C.3     1  UNL1        0.1718
     34 C          22.7141   71.1192   -0.8679 C.3     1  UNL1        0.1968
     35 C          22.0549   71.7469    1.4726 C.3     1  UNL1        0.1723
     36 C          22.7507   72.6117   -1.1995 C.3     1  UNL1        0.2706
     37 C          22.1996   73.2029    1.0396 C.3     1  UNL1        0.1830
     38 H          21.7012   68.8875   -0.0316 H       1  UNL1        0.2105
     39 H          22.3053   69.4474   -1.8282 H       1  UNL1        0.2106
     40 H          20.8877   70.7341    2.7013 H       1  UNL1        0.2106
     41 O          23.3370   73.2214    3.0908 O.co2   1  UNL1       -0.5466
     42 O          22.8542   75.2420    2.1510 O.co2   1  UNL1       -0.5466
     43 C          22.8168   74.0209    2.1269 C.2     1  UNL1        0.0799
@<TRIPOS>UNITY_ATOM_ATTR
2 1
charge -1
26 1
charge -1
41 1
charge -1
@<TRIPOS>BOND
     1     1     4    1
     2     1    24    1
     3     1     2    1
     4     1     3    2
     5    25    28    1
     6    25    24    1
     7    25    26    1
     8    25    27    2
     9     6    11    1
    10     6    12    1
    11    29    36    1
    12    29    37    1
    13     7     9    1
    14     7    13    1
    15     8    10    1
    16     8    14    1
    17     4     5    1
    18    28    36    1
    19    30    33    1
    20    30    38    1
    21    31    34    1
    22    31    39    1
    23    32    35    1
    24    32    40    1
    25    41    43   ar
    26    15    19    2
    27    42    43   ar
    28    16    22    2
    29    17    12    1
    30    17    19   ar
    31    17    20   ar
    32    18    19   ar
    33    18    22   ar
    34    18    23    1
    35     9    10    1
    36     9    11    1
    37    10    12    1
    38    11     5    1
    39    33    34    1
    40    33    35    1
    41    34    36    1
    42    35    37    1
    43    37    43    1
    44    20    21   ar
    45    21    22   ar
@<TRIPOS>MOLECULE
*****
 43 45 0 0 0
SMALL
GASTEIGER

@<TRIPOS>ATOM
      1 P          22.8468   72.1579   -3.2149 P.3     1  UNL1        0.2189
      2 O          23.4363   70.6514   -3.2568 O.co2   1  UNL1       -0.4371
      3 O          23.8782   73.2444   -3.3004 O.2     1  UNL1       -0.5170
      4 O          21.9168   72.1746   -1.8909 O.3     1  UNL1       -0.3112
      5 C          22.0155   73.2780   -1.0093 C.3     1  UNL1        0.1811
      6 O          21.0551   72.9933    1.1757 O.3     1  UNL1       -0.3308
      7 O          18.7770   74.6755    0.1897 O.3     1  UNL1       -0.3794
      8 O          20.2362   76.4503    1.6584 O.3     1  UNL1       -0.3779
      9 C          20.1701   74.7782   -0.1056 C.3     1  UNL1        0.1713
     10 C          20.9157   75.3565    1.0784 C.3     1  UNL1        0.1895
     11 C          20.7392   73.3680   -0.1826 C.3     1  UNL1        0.1764
     12 C          21.0024   74.1606    2.0112 C.3     1  UNL1        0.2383
     13 H          18.3913   75.5643    0.2439 H       1  UNL1        0.2105
     14 H          20.2079   77.1857    1.0257 H       1  UNL1        0.2106
     15 O          21.0916   73.2618    4.6872 O.2     1  UNL1       -0.2464
     16 O          25.5540   74.3421    5.0930 O.2     1  UNL1       -0.2670
     17 N          22.1745   74.1954    2.8394 N.ar    1  UNL1       -0.2551
     18 N          23.3138   73.8016    4.8871 N.ar    1  UNL1       -0.2743
     19 C          22.1126   73.7195    4.1704 C.ar    1  UNL1        0.3323
     20 C          23.3677   74.6948    2.3318 C.ar    1  UNL1        0.0869
     21 C          24.5045   74.7666    3.0270 C.ar    1  UNL1        0.0795
     22 C          24.5252   74.2908    4.4258 C.ar    1  UNL1        0.2626
     23 H          23.2949   73.4781    5.8168 H       1  UNL1        0.1734
     24 O          21.7668   72.1585   -4.4175 O.3     1  UNL1       -0.2703
     25 P          21.5018   73.2224   -5.6057 P.3     1  UNL1        0.2208
     26 O          22.7586   72.9884   -6.5987 O.co2   1  UNL1       -0.4371
     27 O          21.3386   74.6397   -5.1381 O.2     1  UNL1       -0.5170
     28 O          20.2332   72.6319   -6.4084 O.3     1  UNL1       -0.2858
     29 O          19.0748   70.6071   -5.9996 O.3     1  UNL1       -0.3226
     30 O          18.5002   71.0989  -10.0611 O.3     1  UNL1       -0.3794
     31 O          21.1058   71.6435   -8.8574 O.3     1  UNL1       -0.3775
     32 O          16.3359   71.6588   -8.2029 O.3     1  UNL1       -0.3792
     33 C          18.6872   71.5225   -8.7107 C.3     1  UNL1        0.1718
     34 C          20.0264   70.9992   -8.1909 C.3     1  UNL1        0.1968
     35 C          17.5353   70.9600   -7.8749 C.3     1  UNL1        0.1723
     36 C          20.1587   71.2347   -6.6856 C.3     1  UNL1        0.2706
     37 C          17.8006   71.1211   -6.3808 C.3     1  UNL1        0.1830
     38 H          19.2207   71.4446  -10.6113 H       1  UNL1        0.2105
     39 H          21.0280   71.4984   -9.8131 H       1  UNL1        0.2106
     40 H          16.1557   71.5644   -9.1513 H       1  UNL1        0.2106
     41 O          16.4401   70.9623   -4.4768 O.co2   1  UNL1       -0.5466
     42 O          16.4869   69.1616   -5.8747 O.co2   1  UNL1       -0.5466
     43 C          16.8507   70.2904   -5.5808 C.2     1  UNL1        0.0799
@<TRIPOS>UNITY_ATOM_ATTR
2 1
charge -1
26 1
charge -1
41 1
charge -1
@<TRIPOS>BOND
     1     1     4    1
     2     1    24    1
     3     1     2    1
     4     1     3    2
     5    25    28    1
     6    25    24    1
     7    25    26    1
     8    25    27    2
     9     6    11    1
    10     6    12    1
    11    29    36    1
    12    29    37    1
    13     7     9    1
    14     7    13    1
    15     8    10    1
    16     8    14    1
    17     4     5    1
    18    28    36    1
    19    30    33    1
    20    30    38    1
    21    31    34    1
    22    31    39    1
    23    32    35    1
    24    32    40    1
    25    41    43   ar
    26    15    19    2
    27    42    43   ar
    28    16    22    2
    29    17    12    1
    30    17    19   ar
    31    17    20   ar
    32    18    19   ar
    33    18    22   ar
    34    18    23    1
    35     9    10    1
    36     9    11    1
    37    10    12    1
    38    11     5    1
    39    33    34    1
    40    33    35    1
    41    34    36    1
    42    35    37    1
    43    37    43    1
    44    20    21   ar
    45    21    22   ar
@<TRIPOS>MOLECULE
*****
 43 45 0 0 0
SMALL
GASTEIGER

@<TRIPOS>ATOM
      1 P          22.7296   72.9192   -3.9647 P.3     1  UNL1        0.2189
      2 O          23.3132   71.4444   -3.6433 O.co2   1  UNL1       -0.4371
      3 O          23.5437   74.0555   -3.4189 O.2     1  UNL1       -0.5170
      4 O          21.1944   72.8483   -3.4589 O.3     1  UNL1       -0.3112
      5 C          20.5227   71.6030   -3.5093 C.3     1  UNL1        0.1811
      6 O          18.5294   72.2570   -4.6826 O.3     1  UNL1       -0.3308
      7 O          17.0106   70.9970   -2.4249 O.3     1  UNL1       -0.3794
      8 O          16.8767   69.0907   -4.3702 O.3     1  UNL1       -0.3779
      9 C          18.2400   70.5892   -3.0256 C.3     1  UNL1        0.1713
     10 C          17.9805   69.9716   -4.3833 C.3     1  UNL1        0.1895
     11 C          19.0232   71.8430   -3.3903 C.3     1  UNL1        0.1764
     12 C          17.7396   71.1981   -5.2468 C.3     1  UNL1        0.2383
     13 H          16.4927   70.2127   -2.1832 H       1  UNL1        0.2105
     14 H          17.0797   68.3265   -3.8073 H       1  UNL1        0.2106
     15 O          16.0358   70.2217   -7.2767 O.2     1  UNL1       -0.2464
     16 O          19.3747   70.4572  -10.4454 O.2     1  UNL1       -0.2670
     17 N          18.1377   70.9946   -6.6110 N.ar    1  UNL1       -0.2551
     18 N          17.7007   70.3389   -8.8527 N.ar    1  UNL1       -0.2743
     19 C          17.2044   70.4996   -7.5523 C.ar    1  UNL1        0.3323
     20 C          19.4381   71.2857   -7.0048 C.ar    1  UNL1        0.0869
     21 C          19.8965   71.1275   -8.2480 C.ar    1  UNL1        0.0795
     22 C          18.9855   70.6140   -9.2920 C.ar    1  UNL1        0.2626
     23 H          17.0699   69.9936   -9.5252 H       1  UNL1        0.1734
     24 O          22.5827   72.9085   -5.5744 O.3     1  UNL1       -0.2703
     25 P          22.4282   74.1195   -6.6343 P.3     1  UNL1        0.2208
     26 O          22.7778   73.4181   -8.0507 O.co2   1  UNL1       -0.4371
     27 O          23.2651   75.3251   -6.3180 O.2     1  UNL1       -0.5170
     28 O          20.8419   74.4046   -6.7016 O.3     1  UNL1       -0.2858
     29 O          19.3498   74.8734   -8.4801 O.3     1  UNL1       -0.3226
     30 O          17.8713   77.2995   -5.4808 O.3     1  UNL1       -0.3794
     31 O          20.7510   77.0713   -5.9164 O.3     1  UNL1       -0.3775
     32 O          16.4951   74.8349   -6.1755 O.3     1  UNL1       -0.3792
     33 C          18.5109   76.1463   -6.0278 C.3     1  UNL1        0.1718
     34 C          19.7572   76.5723   -6.8041 C.3     1  UNL1        0.1968
     35 C          17.5156   75.4506   -6.9591 C.3     1  UNL1        0.1723
     36 C          20.3383   75.3979   -7.5929 C.3     1  UNL1        0.2706
     37 C          18.1980   74.3771   -7.8018 C.3     1  UNL1        0.1830
     38 H          18.4850   77.7580   -4.8855 H       1  UNL1        0.2105
     39 H          20.3890   77.8165   -5.4124 H       1  UNL1        0.2106
     40 H          16.0530   75.5075   -5.6342 H       1  UNL1        0.2106
     41 O          16.1875   73.3524   -8.4417 O.co2   1  UNL1       -0.5466
     42 O          17.5572   74.0874  -10.1098 O.co2   1  UNL1       -0.5466
     43 C          17.3118   73.9391   -8.9221 C.2     1  UNL1        0.0799
@<TRIPOS>UNITY_ATOM_ATTR
2 1
charge -1
26 1
charge -1
41 1
charge -1
@<TRIPOS>BOND
     1     1     4    1
     2     1    24    1
     3     1     2    1
     4     1     3    2
     5    25    28    1
     6    25    24    1
     7    25    26    1
     8    25    27    2
     9     6    11    1
    10     6    12    1
    11    29    36    1
    12    29    37    1
    13     7     9    1
    14     7    13    1
    15     8    10    1
    16     8    14    1
    17     4     5    1
    18    28    36    1
    19    30    33    1
    20    30    38    1
    21    31    34    1
    22    31    39    1
    23    32    35    1
    24    32    40    1
    25    41    43   ar
    26    15    19    2
    27    42    43   ar
    28    16    22    2
    29    17    12    1
    30    17    19   ar
    31    17    20   ar
    32    18    19   ar
    33    18    22   ar
    34    18    23    1
    35     9    10    1
    36     9    11    1
    37    10    12    1
    38    11     5    1
    39    33    34    1
    40    33    35    1
    41    34    36    1
    42    35    37    1
    43    37    43    1
    44    20    21   ar
    45    21    22   ar
@<TRIPOS>MOLECULE
*****
 43 45 0 0 0
SMALL
GASTEIGER

@<TRIPOS>ATOM
      1 P          21.9962   70.5475   -0.2168 P.3     1  UNL1        0.2189
      2 O          20.8383   69.7576   -1.0256 O.co2   1  UNL1       -0.4371
      3 O          23.1365   69.6927    0.2533 O.2     1  UNL1       -0.5170
      4 O          21.1898   71.3413    0.9398 O.3     1  UNL1       -0.3112
      5 C          21.8400   72.4069    1.6076 C.3     1  UNL1        0.1811
      6 O          20.3463   74.0071    2.6005 O.3     1  UNL1       -0.3308
      7 O          21.1448   75.8537    0.3771 O.3     1  UNL1       -0.3794
      8 O          22.6372   76.7619    2.4709 O.3     1  UNL1       -0.3779
      9 C          21.9330   74.8944    1.0820 C.3     1  UNL1        0.1713
     10 C          22.2573   75.4016    2.4712 C.3     1  UNL1        0.1895
     11 C          21.0508   73.6899    1.3805 C.3     1  UNL1        0.1764
     12 C          20.9511   75.1595    3.2083 C.3     1  UNL1        0.2383
     13 H          21.6871   76.6327    0.1752 H       1  UNL1        0.2105
     14 H          23.4741   76.8637    1.9900 H       1  UNL1        0.2106
     15 O          22.9050   73.4006    4.2404 O.2     1  UNL1       -0.2464
     16 O          21.6264   74.2397    8.5884 O.2     1  UNL1       -0.2670
     17 N          21.1506   74.8997    4.6059 N.ar    1  UNL1       -0.2551
     18 N          22.2656   73.8194    6.4049 N.ar    1  UNL1       -0.2743
     19 C          22.1600   73.9983    5.0193 C.ar    1  UNL1        0.3323
     20 C          20.3534   75.5350    5.5502 C.ar    1  UNL1        0.0869
     21 C          20.4661   75.3545    6.8676 C.ar    1  UNL1        0.0795
     22 C          21.4956   74.4282    7.3827 C.ar    1  UNL1        0.2626
     23 H          22.9600   73.1949    6.7166 H       1  UNL1        0.1734
     24 O          22.4155   71.7254   -1.2413 O.3     1  UNL1       -0.2703
     25 P          22.6133   71.7161   -2.8458 P.3     1  UNL1        0.2208
     26 O          23.5626   70.4286   -3.0939 O.co2   1  UNL1       -0.4371
     27 O          23.1529   72.9996   -3.4072 O.2     1  UNL1       -0.5170
     28 O          21.1752   71.2808   -3.4329 O.3     1  UNL1       -0.2858
     29 O          19.8419   72.1152   -5.2036 O.3     1  UNL1       -0.3226
     30 O          16.9790   71.0864   -2.4083 O.3     1  UNL1       -0.3794
     31 O          19.4415   72.4240   -1.5827 O.3     1  UNL1       -0.3775
     32 O          17.4168   69.4017   -4.7367 O.3     1  UNL1       -0.3792
     33 C          18.2224   70.9770   -3.1012 C.3     1  UNL1        0.1718
     34 C          19.0179   72.2716   -2.9325 C.3     1  UNL1        0.1968
     35 C          17.9191   70.7275   -4.5803 C.3     1  UNL1        0.1723
     36 C          20.2459   72.2819   -3.8440 C.3     1  UNL1        0.2706
     37 C          19.1713   70.8791   -5.4390 C.3     1  UNL1        0.1830
     38 H          17.1467   71.2452   -1.4660 H       1  UNL1        0.2105
     39 H          18.6673   72.4181   -0.9987 H       1  UNL1        0.2106
     40 H          16.6196   69.2920   -4.1950 H       1  UNL1        0.2106
     41 O          19.7512   70.3418   -7.6473 O.co2   1  UNL1       -0.5466
     42 O          17.8170   71.5080   -7.3342 O.co2   1  UNL1       -0.5466
     43 C          18.8145   70.9616   -6.8875 C.2     1  UNL1        0.0799
@<TRIPOS>UNITY_ATOM_ATTR
2 1
charge -1
26 1
charge -1
41 1
charge -1
@<TRIPOS>BOND
     1     1     4    1
     2     1    24    1
     3     1     2    1
     4     1     3    2
     5    25    28    1
     6    25    24    1
     7    25    26    1
     8    25    27    2
     9     6    11    1
    10     6    12    1
    11    29    36    1
    12    29    37    1
    13     7     9    1
    14     7    13    1
    15     8    10    1
    16     8    14    1
    17     4     5    1
    18    28    36    1
    19    30    33    1
    20    30    38    1
    21    31    34    1
    22    31    39    1
    23    32    35    1
    24    32    40    1
    25    41    43   ar
    26    15    19    2
    27    42    43   ar
    28    16    22    2
    29    17    12    1
    30    17    19   ar
    31    17    20   ar
    32    18    19   ar
    33    18    22   ar
    34    18    23    1
    35     9    10    1
    36     9    11    1
    37    10    12    1
    38    11     5    1
    39    33    34    1
    40    33    35    1
    41    34    36    1
    42    35    37    1
    43    37    43    1
    44    20    21   ar
    45    21    22   ar
@<TRIPOS>MOLECULE
*****
 43 45 0 0 0
SMALL
GASTEIGER

@<TRIPOS>ATOM
      1 P          23.0363   72.9381   -4.0306 P.3     1  UNL1        0.2189
      2 O          23.2280   71.3500   -3.7859 O.co2   1  UNL1       -0.4371
      3 O          24.1430   73.7996   -3.4969 O.2     1  UNL1       -0.5170
      4 O          21.5604   73.2464   -3.4434 O.3     1  UNL1       -0.3112
      5 C          21.3728   73.2240   -2.0402 C.3     1  UNL1        0.1811
      6 O          22.7729   73.0596   -0.0933 O.3     1  UNL1       -0.3308
      7 O          23.5010   70.3221   -1.0770 O.3     1  UNL1       -0.3794
      8 O          21.6651   69.7879    0.8673 O.3     1  UNL1       -0.3779
      9 C          22.2505   71.0068   -1.1535 C.3     1  UNL1        0.1713
     10 C          21.5830   71.0326    0.2052 C.3     1  UNL1        0.1895
     11 C          22.5370   72.4824   -1.3959 C.3     1  UNL1        0.1764
     12 C          22.3602   72.1263    0.9176 C.3     1  UNL1        0.2383
     13 H          23.3436   69.3771   -0.9224 H       1  UNL1        0.2105
     14 H          21.1542   69.1255    0.3750 H       1  UNL1        0.2106
     15 O          22.2671   71.4578    3.6601 O.2     1  UNL1       -0.2464
     16 O          19.2752   74.8435    4.5710 O.2     1  UNL1       -0.2670
     17 N          21.5654   72.8165    1.8937 N.ar    1  UNL1       -0.2551
     18 N          20.7763   73.1441    4.1110 N.ar    1  UNL1       -0.2743
     19 C          21.5900   72.4007    3.2459 C.ar    1  UNL1        0.3323
     20 C          20.7747   73.8926    1.5090 C.ar    1  UNL1        0.0869
     21 C          20.0045   74.5915    2.3451 C.ar    1  UNL1        0.0795
     22 C          19.9722   74.2213    3.7752 C.ar    1  UNL1        0.2626
     23 H          20.7752   72.8720    5.0572 H       1  UNL1        0.1734
     24 O          22.8187   73.0353   -5.6294 O.3     1  UNL1       -0.2703
     25 P          22.0651   74.1443   -6.5326 P.3     1  UNL1        0.2208
     26 O          22.9711   74.2078   -7.8726 O.co2   1  UNL1       -0.4371
     27 O          21.8757   75.4685   -5.8509 O.2     1  UNL1       -0.5170
     28 O          20.6963   73.4300   -7.0001 O.3     1  UNL1       -0.2858
     29 O          19.7473   71.3122   -6.5277 O.3     1  UNL1       -0.3226
     30 O          18.6720   71.8526  -10.4799 O.3     1  UNL1       -0.3794
     31 O          21.3513   72.5700   -9.5628 O.3     1  UNL1       -0.3775
     32 O          16.7012   72.1987   -8.3711 O.3     1  UNL1       -0.3792
     33 C          18.9816   72.2578   -9.1465 C.3     1  UNL1        0.1718
     34 C          20.4072   71.8282   -8.7991 C.3     1  UNL1        0.1968
     35 C          17.9793   71.5879   -8.2039 C.3     1  UNL1        0.1723
     36 C          20.6948   72.0381   -7.3118 C.3     1  UNL1        0.2706
     37 C          18.4028   71.7342   -6.7452 C.3     1  UNL1        0.1830
     38 H          19.2962   72.2660  -11.0969 H       1  UNL1        0.2105
     39 H          21.1746   72.4417  -10.5076 H       1  UNL1        0.2106
     40 H          16.4202   72.1127   -9.2954 H       1  UNL1        0.2106
     41 O          16.4688   70.4331   -6.4837 O.co2   1  UNL1       -0.5466
     42 O          17.9546   70.4472   -4.7542 O.co2   1  UNL1       -0.5466
     43 C          17.6164   70.8136   -5.8697 C.2     1  UNL1        0.0799
@<TRIPOS>UNITY_ATOM_ATTR
2 1
charge -1
26 1
charge -1
41 1
charge -1
@<TRIPOS>BOND
     1     1     4    1
     2     1    24    1
     3     1     2    1
     4     1     3    2
     5    25    28    1
     6    25    24    1
     7    25    26    1
     8    25    27    2
     9     6    11    1
    10     6    12    1
    11    29    36    1
    12    29    37    1
    13     7     9    1
    14     7    13    1
    15     8    10    1
    16     8    14    1
    17     4     5    1
    18    28    36    1
    19    30    33    1
    20    30    38    1
    21    31    34    1
    22    31    39    1
    23    32    35    1
    24    32    40    1
    25    41    43   ar
    26    15    19    2
    27    42    43   ar
    28    16    22    2
    29    17    12    1
    30    17    19   ar
    31    17    20   ar
    32    18    19   ar
    33    18    22   ar
    34    18    23    1
    35     9    10    1
    36     9    11    1
    37    10    12    1
    38    11     5    1
    39    33    34    1
    40    33    35    1
    41    34    36    1
    42    35    37    1
    43    37    43    1
    44    20    21   ar
    45    21    22   ar
@<TRIPOS>MOLECULE
*****
 43 45 0 0 0
SMALL
GASTEIGER

@<TRIPOS>ATOM
      1 P          22.4514   75.3136   -8.0533 P.3     1  UNL1        0.2189
      2 O          22.2500   75.0173   -6.4752 O.co2   1  UNL1       -0.4371
      3 O          21.8677   76.6097   -8.5341 O.2     1  UNL1       -0.5170
      4 O          21.8882   73.9791   -8.7742 O.3     1  UNL1       -0.3112
      5 C          21.1137   73.0733   -8.0099 C.3     1  UNL1        0.1811
      6 O          19.8925   71.0230   -8.2971 O.3     1  UNL1       -0.3308
      7 O          18.3999   72.4352  -10.4809 O.3     1  UNL1       -0.3794
      8 O          16.6499   72.5496   -8.3927 O.3     1  UNL1       -0.3779
      9 C          18.8922   72.9502   -9.2436 C.3     1  UNL1        0.1713
     10 C          18.0285   72.4715   -8.0959 C.3     1  UNL1        0.1895
     11 C          20.2216   72.2697   -8.9472 C.3     1  UNL1        0.1764
     12 C          18.5078   71.0413   -7.9157 C.3     1  UNL1        0.2383
     13 H          17.5509   72.8553  -10.6915 H       1  UNL1        0.2105
     14 H          16.3940   73.4799   -8.4979 H       1  UNL1        0.2106
     15 O          16.1514   69.9692   -6.7867 O.2     1  UNL1       -0.2464
     16 O          18.1772   69.3480   -2.6935 O.2     1  UNL1       -0.2670
     17 N          18.3916   70.5915   -6.5574 N.ar    1  UNL1       -0.2551
     18 N          17.1623   69.6618   -4.7489 N.ar    1  UNL1       -0.2743
     19 C          17.1626   70.0694   -6.0894 C.ar    1  UNL1        0.3323
     20 C          19.4867   70.6682   -5.7053 C.ar    1  UNL1        0.0869
     21 C          19.4711   70.2756   -4.4300 C.ar    1  UNL1        0.0795
     22 C          18.2255   69.7189   -3.8624 C.ar    1  UNL1        0.2626
     23 H          16.3172   69.2967   -4.3998 H       1  UNL1        0.1734
     24 O          24.0510   75.1831   -8.2457 O.3     1  UNL1       -0.2703
     25 P          25.2014   76.3127   -8.3655 P.3     1  UNL1        0.2208
     26 O          24.9244   77.2601   -7.0826 O.co2   1  UNL1       -0.4371
     27 O          25.2164   77.0394   -9.6792 O.2     1  UNL1       -0.5170
     28 O          26.5725   75.5396   -8.0124 O.3     1  UNL1       -0.2858
     29 O          28.4362   76.1642   -6.6912 O.3     1  UNL1       -0.3226
     30 O          30.2327   73.9672   -9.6935 O.3     1  UNL1       -0.3794
     31 O          28.0949   75.8577  -10.3183 O.3     1  UNL1       -0.3775
     32 O          29.8882   72.8135   -7.0475 O.3     1  UNL1       -0.3792
     33 C          29.1897   74.3267   -8.7874 C.3     1  UNL1        0.1718
     34 C          28.7498   75.7656   -9.0584 C.3     1  UNL1        0.1968
     35 C          29.7345   74.1959   -7.3633 C.3     1  UNL1        0.1723
     36 C          27.8013   76.2626   -7.9666 C.3     1  UNL1        0.2706
     37 C          28.7891   74.8268   -6.3451 C.3     1  UNL1        0.1830
     38 H          29.9095   74.0428  -10.6052 H       1  UNL1        0.2105
     39 H          28.6909   75.5436  -11.0158 H       1  UNL1        0.2106
     40 H          30.4876   72.4001   -7.6883 H       1  UNL1        0.2106
     41 O          29.7855   76.2895   -4.8059 O.co2   1  UNL1       -0.5466
     42 O          29.6999   74.0828   -4.2383 O.co2   1  UNL1       -0.5466
     43 C          29.4656   74.9897   -5.0229 C.2     1  UNL1        0.0799
@<TRIPOS>UNITY_ATOM_ATTR
2 1
charge -1
26 1
charge -1
41 1
charge -1
@<TRIPOS>BOND
     1     1     4    1
     2     1    24    1
     3     1     2    1
     4     1     3    2
     5    25    28    1
     6    25    24    1
     7    25    26    1
     8    25    27    2
     9     6    11    1
    10     6    12    1
    11    29    36    1
    12    29    37    1
    13     7     9    1
    14     7    13    1
    15     8    10    1
    16     8    14    1
    17     4     5    1
    18    28    36    1
    19    30    33    1
    20    30    38    1
    21    31    34    1
    22    31    39    1
    23    32    35    1
    24    32    40    1
    25    41    43   ar
    26    15    19    2
    27    42    43   ar
    28    16    22    2
    29    17    12    1
    30    17    19   ar
    31    17    20   ar
    32    18    19   ar
    33    18    22   ar
    34    18    23    1
    35     9    10    1
    36     9    11    1
    37    10    12    1
    38    11     5    1
    39    33    34    1
    40    33    35    1
    41    34    36    1
    42    35    37    1
    43    37    43    1
    44    20    21   ar
    45    21    22   ar
@<TRIPOS>MOLECULE
*****
 43 45 0 0 0
SMALL
GASTEIGER

@<TRIPOS>ATOM
      1 P          21.8690   70.6901   -2.8578 P.3     1  UNL1        0.2189
      2 O          23.3767   70.8151   -3.4323 O.co2   1  UNL1       -0.4371
      3 O          21.2656   69.3196   -2.9551 O.2     1  UNL1       -0.5170
      4 O          21.0638   71.8681   -3.6205 O.3     1  UNL1       -0.3112
      5 C          20.1924   71.5157   -4.6792 C.3     1  UNL1        0.1811
      6 O          17.9378   72.3483   -4.7142 O.3     1  UNL1       -0.3308
      7 O          17.1428   69.7103   -3.5308 O.3     1  UNL1       -0.3794
      8 O          16.4925   69.4036   -6.1613 O.3     1  UNL1       -0.3779
      9 C          18.1574   70.0003   -4.4926 C.3     1  UNL1        0.1713
     10 C          17.5329   70.3024   -5.8384 C.3     1  UNL1        0.1895
     11 C          18.7847   71.3380   -4.1249 C.3     1  UNL1        0.1764
     12 C          17.0372   71.7252   -5.6437 C.3     1  UNL1        0.2383
     13 H          16.7273   68.8599   -3.7450 H       1  UNL1        0.2105
     14 H          16.8590   68.5122   -6.2752 H       1  UNL1        0.2106
     15 O          18.6804   71.1552   -7.8690 O.2     1  UNL1       -0.2464
     16 O          16.9438   74.6761  -10.2839 O.2     1  UNL1       -0.2670
     17 N          17.0349   72.4768   -6.8668 N.ar    1  UNL1       -0.2551
     18 N          17.8146   72.9100   -9.0692 N.ar    1  UNL1       -0.2743
     19 C          17.8997   72.1073   -7.9240 C.ar    1  UNL1        0.3323
     20 C          16.1822   73.5646   -7.0108 C.ar    1  UNL1        0.0869
     21 C          16.1123   74.3201   -8.1086 C.ar    1  UNL1        0.0795
     22 C          16.9833   74.0020   -9.2591 C.ar    1  UNL1        0.2626
     23 H          18.4086   72.6735   -9.8179 H       1  UNL1        0.1734
     24 O          22.0063   71.2600   -1.3515 O.3     1  UNL1       -0.2703
     25 P          22.4158   70.5243    0.0286 P.3     1  UNL1        0.2208
     26 O          23.8662   69.8888   -0.3074 O.co2   1  UNL1       -0.4371
     27 O          21.4040   69.5301    0.5202 O.2     1  UNL1       -0.5170
     28 O          22.7268   71.7274    1.0572 O.3     1  UNL1       -0.2858
     29 O          21.3435   72.8533    2.6154 O.3     1  UNL1       -0.3226
     30 O          23.8385   75.8952    1.3547 O.3     1  UNL1       -0.3794
     31 O          22.7440   73.9857   -0.5663 O.3     1  UNL1       -0.3775
     32 O          24.2339   74.6693    3.9607 O.3     1  UNL1       -0.3792
     33 C          23.4820   74.5505    1.6748 C.3     1  UNL1        0.1718
     34 C          22.3202   74.1039    0.7869 C.3     1  UNL1        0.1968
     35 C          23.0724   74.5079    3.1487 C.3     1  UNL1        0.1723
     36 C          21.7612   72.7589    1.2530 C.3     1  UNL1        0.2706
     37 C          22.4091   73.1805    3.5044 C.3     1  UNL1        0.1830
     38 H          24.1025   75.9468    0.4225 H       1  UNL1        0.2105
     39 H          23.1001   74.8355   -0.8685 H       1  UNL1        0.2106
     40 H          24.6656   75.5104    3.7441 H       1  UNL1        0.2106
     41 O          22.5772   72.9335    5.8309 O.co2   1  UNL1       -0.5466
     42 O          20.5606   73.5961    4.9982 O.co2   1  UNL1       -0.5466
     43 C          21.7254   73.2676    4.8300 C.2     1  UNL1        0.0799
@<TRIPOS>UNITY_ATOM_ATTR
2 1
charge -1
26 1
charge -1
41 1
charge -1
@<TRIPOS>BOND
     1     1     4    1
     2     1    24    1
     3     1     2    1
     4     1     3    2
     5    25    28    1
     6    25    24    1
     7    25    26    1
     8    25    27    2
     9     6    11    1
    10     6    12    1
    11    29    36    1
    12    29    37    1
    13     7     9    1
    14     7    13    1
    15     8    10    1
    16     8    14    1
    17     4     5    1
    18    28    36    1
    19    30    33    1
    20    30    38    1
    21    31    34    1
    22    31    39    1
    23    32    35    1
    24    32    40    1
    25    41    43   ar
    26    15    19    2
    27    42    43   ar
    28    16    22    2
    29    17    12    1
    30    17    19   ar
    31    17    20   ar
    32    18    19   ar
    33    18    22   ar
    34    18    23    1
    35     9    10    1
    36     9    11    1
    37    10    12    1
    38    11     5    1
    39    33    34    1
    40    33    35    1
    41    34    36    1
    42    35    37    1
    43    37    43    1
    44    20    21   ar
    45    21    22   ar
