@<TRIPOS>MOLECULE
GDU
 43 45 0 0 0
SMALL
GASTEIGER

@<TRIPOS>ATOM
      1 P          21.6468   70.5136   -0.6322 P.3     1  UNL1        0.2189
      2 O          21.5932   69.3146    0.2333 O.2     1  UNL1       -0.5170
      3 O          23.1735   70.8022   -1.0552 O.3     1  UNL1       -0.4371
      4 O          20.7624   70.2632   -1.9520 O.3     1  UNL1       -0.3112
      5 C          20.6306   71.5256   -2.6074 C.3     1  UNL1        0.1811
      6 C          18.1777   71.2163   -5.2179 C.3     1  UNL1        0.2383
      7 C          18.0705   69.8892   -4.4241 C.3     1  UNL1        0.1895
      8 O          16.7363   69.3776   -4.4637 O.3     1  UNL1       -0.3779
      9 C          18.4484   70.3380   -2.9884 C.3     1  UNL1        0.1713
     10 C          19.2254   71.6507   -3.1991 C.3     1  UNL1        0.1764
     11 O          19.3108   71.8780   -4.6166 O.3     1  UNL1       -0.3308
     12 O          17.2718   70.5647   -2.2099 O.3     1  UNL1       -0.3794
     13 H          16.7377   68.5554   -3.9540 H       1  UNL1        0.2106
     14 H          16.7997   69.7222   -2.1639 H       1  UNL1        0.2105
     15 N          18.4272   70.9528   -6.6361 N.ar    1  UNL1       -0.2551
     16 C          17.3903   70.8076   -7.4799 C.ar    1  UNL1        0.3323
     17 N          17.5923   70.5683   -8.7890 N.ar    1  UNL1       -0.2743
     18 C          18.8437   70.4600   -9.2753 C.ar    1  UNL1        0.2626
     19 C          19.9456   70.6050   -8.3971 C.ar    1  UNL1        0.0795
     20 C          19.7147   70.8488   -7.0895 C.ar    1  UNL1        0.0869
     21 O          16.2557   70.9031   -7.0560 O.2     1  UNL1       -0.2464
     22 O          19.0275   70.2387  -10.4592 O.2     1  UNL1       -0.2670
     23 H          16.8323   70.4705   -9.3844 H       1  UNL1        0.1734
     24 O          21.0655   71.7814    0.1723 O.3     1  UNL1       -0.2703
     25 P          21.8314   71.8275    1.5870 P.3     1  UNL1        0.2208
     26 O          20.8500   72.0488    2.6719 O.2     1  UNL1       -0.5170
     27 O          22.5934   70.4295    1.8302 O.3     1  UNL1       -0.4371
     28 O          22.9037   73.0275    1.5790 O.3     1  UNL1       -0.2858
     29 C          22.2760   74.1492    2.2016 C.3     1  UNL1        0.2704
     30 C          22.5782   75.4137    1.3960 C.3     1  UNL1        0.1967
     31 C          24.0957   75.6115    1.3291 C.3     1  UNL1        0.1715
     32 C          24.6550   75.5980    2.7562 C.3     1  UNL1        0.1694
     33 C          24.1966   74.3175    3.4584 C.3     1  UNL1        0.1761
     34 O          22.0531   75.2761    0.0744 O.3     1  UNL1       -0.3775
     35 O          24.3896   76.8644    0.7074 O.3     1  UNL1       -0.3794
     36 O          24.1734   76.7382    3.4689 O.3     1  UNL1       -0.3794
     37 O          22.7718   74.2918    3.5307 O.3     1  UNL1       -0.3258
     38 H          21.0992   75.1469    0.1652 H       1  UNL1        0.2106
     39 H          24.0102   76.8323   -0.1799 H       1  UNL1        0.2105
     40 H          24.4803   77.5184    2.9890 H       1  UNL1        0.2105
     41 C          24.7782   74.2776    4.8733 C.3     1  UNL1        0.1693
     42 O          26.0510   74.9263    4.8827 O.3     1  UNL1       -0.3794
     43 H          26.3821   74.8801    5.7902 H       1  UNL1        0.2105
@<TRIPOS>BOND
     1    15    16   ar
     2    15    20   ar
     3    15     6    1
     4    16    17   ar
     5    16    21    2
     6    17    18   ar
     7    17    23    1
     8    18    19   ar
     9    18    22    2
    10    19    20   ar
    11     6     7    1
    12     6    11    1
    13     7     8    1
    14     7     9    1
    15     8    13    1
    16     9    10    1
    17     9    12    1
    18    10    11    1
    19    10     5    1
    20    12    14    1
    21     5     4    1
    22     4     1    1
    23     1     2    2
    24     1     3    1
    25     1    24    1
    26    24    25    1
    27    25    26    2
    28    25    27    1
    29    25    28    1
    30    28    29    1
    31    29    30    1
    32    29    37    1
    33    30    31    1
    34    30    34    1
    35    31    32    1
    36    31    35    1
    37    32    33    1
    38    32    36    1
    39    33    41    1
    40    33    37    1
    41    41    42    1
    42    34    38    1
    43    35    39    1
    44    36    40    1
    45    42    43    1
@<TRIPOS>MOLECULE
GDU
 43 45 0 0 0
SMALL
GASTEIGER

@<TRIPOS>ATOM
      1 P          22.0583   70.9045   -2.4249 P.3     1  UNL1        0.2189
      2 O          21.4703   69.6170   -1.9933 O.2     1  UNL1       -0.5170
      3 O          23.4950   70.6382   -3.1015 O.3     1  UNL1       -0.4371
      4 O          21.0840   71.6084   -3.4936 O.3     1  UNL1       -0.3112
      5 C          20.1008   72.3268   -2.7467 C.3     1  UNL1        0.1811
      6 C          17.8803   71.3586   -5.4037 C.3     1  UNL1        0.2383
      7 C          17.9787   70.1020   -4.5014 C.3     1  UNL1        0.1895
      8 O          16.7646   69.3485   -4.5424 O.3     1  UNL1       -0.3779
      9 C          18.1953   70.7258   -3.0981 C.3     1  UNL1        0.1713
     10 C          18.7280   72.1398   -3.3953 C.3     1  UNL1        0.1764
     11 O          18.8412   72.2661   -4.8234 O.3     1  UNL1       -0.3308
     12 O          16.9596   70.7894   -2.3834 O.3     1  UNL1       -0.3794
     13 H          16.8912   68.5840   -3.9633 H       1  UNL1        0.2106
     14 H          16.6484   69.8798   -2.2806 H       1  UNL1        0.2105
     15 N          18.2447   71.0350   -6.7840 N.ar    1  UNL1       -0.2551
     16 C          17.2855   70.7073   -7.6676 C.ar    1  UNL1        0.3323
     17 N          17.5934   70.4089   -8.9435 N.ar    1  UNL1       -0.2743
     18 C          18.8758   70.4244   -9.3550 C.ar    1  UNL1        0.2626
     19 C          19.8974   70.7622   -8.4338 C.ar    1  UNL1        0.0795
     20 C          19.5605   71.0613   -7.1613 C.ar    1  UNL1        0.0869
     21 O          16.1242   70.6894   -7.3112 O.2     1  UNL1       -0.2464
     22 O          19.1560   70.1498  -10.5086 O.2     1  UNL1       -0.2670
     23 H          16.8879   70.1787   -9.5689 H       1  UNL1        0.1734
     24 O          22.2388   71.8663   -1.1463 O.3     1  UNL1       -0.2703
     25 P          22.4470   70.9101    0.1313 P.3     1  UNL1        0.2208
     26 O          21.1984   70.1614    0.3955 O.2     1  UNL1       -0.5170
     27 O          23.6422   69.8718   -0.1649 O.3     1  UNL1       -0.4371
     28 O          22.8203   71.8036    1.4167 O.3     1  UNL1       -0.2858
     29 C          22.0191   72.9840    1.3483 C.3     1  UNL1        0.2704
     30 C          22.9223   74.2013    1.1438 C.3     1  UNL1        0.1967
     31 C          23.9141   74.2874    2.3080 C.3     1  UNL1        0.1715
     32 C          23.1278   74.2723    3.6238 C.3     1  UNL1        0.1694
     33 C          22.2098   73.0476    3.6409 C.3     1  UNL1        0.1761
     34 O          23.6364   74.0661   -0.0862 O.3     1  UNL1       -0.3775
     35 O          24.6663   75.4986    2.2093 O.3     1  UNL1       -0.3794
     36 O          22.3458   75.4630    3.7268 O.3     1  UNL1       -0.3794
     37 O          21.2816   73.1265    2.5601 O.3     1  UNL1       -0.3258
     38 H          22.9742   74.0084   -0.7884 H       1  UNL1        0.2106
     39 H          25.1332   75.4700    1.3647 H       1  UNL1        0.2105
     40 H          22.9631   76.2059    3.7061 H       1  UNL1        0.2105
     41 C          21.4449   73.0042    4.9657 C.3     1  UNL1        0.1693
     42 O          22.2976   73.4496    6.0219 O.3     1  UNL1       -0.3794
     43 H          21.7788   73.4079    6.8370 H       1  UNL1        0.2105
@<TRIPOS>BOND
     1    15    16   ar
     2    15    20   ar
     3    15     6    1
     4    16    17   ar
     5    16    21    2
     6    17    18   ar
     7    17    23    1
     8    18    19   ar
     9    18    22    2
    10    19    20   ar
    11     6     7    1
    12     6    11    1
    13     7     8    1
    14     7     9    1
    15     8    13    1
    16     9    10    1
    17     9    12    1
    18    10    11    1
    19    10     5    1
    20    12    14    1
    21     5     4    1
    22     4     1    1
    23     1     2    2
    24     1     3    1
    25     1    24    1
    26    24    25    1
    27    25    26    2
    28    25    27    1
    29    25    28    1
    30    28    29    1
    31    29    30    1
    32    29    37    1
    33    30    31    1
    34    30    34    1
    35    31    32    1
    36    31    35    1
    37    32    33    1
    38    32    36    1
    39    33    41    1
    40    33    37    1
    41    41    42    1
    42    34    38    1
    43    35    39    1
    44    36    40    1
    45    42    43    1
@<TRIPOS>MOLECULE
GDU
 43 45 0 0 0
SMALL
GASTEIGER

@<TRIPOS>ATOM
      1 P          22.1017   70.9362   -2.5162 P.3     1  UNL1        0.2189
      2 O          21.5026   69.6154   -2.2227 O.2     1  UNL1       -0.5170
      3 O          23.5369   70.7306   -3.2170 O.3     1  UNL1       -0.4371
      4 O          21.1344   71.7569   -3.5049 O.3     1  UNL1       -0.3112
      5 C          20.1295   72.3639   -2.6911 C.3     1  UNL1        0.1811
      6 C          17.9124   71.3756   -5.3434 C.3     1  UNL1        0.2383
      7 C          18.0366   70.1149   -4.4500 C.3     1  UNL1        0.1895
      8 O          16.8354   69.3411   -4.4901 O.3     1  UNL1       -0.3779
      9 C          18.2498   70.7330   -3.0437 C.3     1  UNL1        0.1713
     10 C          18.7569   72.1578   -3.3341 C.3     1  UNL1        0.1764
     11 O          18.8607   72.2954   -4.7619 O.3     1  UNL1       -0.3308
     12 O          17.0167   70.7709   -2.3225 O.3     1  UNL1       -0.3794
     13 H          16.9779   68.5751   -3.9167 H       1  UNL1        0.2106
     14 H          16.7215   69.8555   -2.2242 H       1  UNL1        0.2105
     15 N          18.2753   71.0672   -6.7277 N.ar    1  UNL1       -0.2551
     16 C          17.3175   70.7275   -7.6083 C.ar    1  UNL1        0.3323
     17 N          17.6240   70.4427   -8.8877 N.ar    1  UNL1       -0.2743
     18 C          18.9037   70.4843   -9.3058 C.ar    1  UNL1        0.2626
     19 C          19.9238   70.8350   -8.3878 C.ar    1  UNL1        0.0795
     20 C          19.5883   71.1200   -7.1116 C.ar    1  UNL1        0.0869
     21 O          16.1586   70.6862   -7.2459 O.2     1  UNL1       -0.2464
     22 O          19.1826   70.2221  -10.4625 O.2     1  UNL1       -0.2670
     23 H          16.9194   70.2036   -9.5108 H       1  UNL1        0.1734
     24 O          22.2890   71.7565   -1.1434 O.3     1  UNL1       -0.2703
     25 P          21.9203   70.7490    0.0562 P.3     1  UNL1        0.2208
     26 O          20.9817   69.7173   -0.4373 O.2     1  UNL1       -0.5170
     27 O          23.2631   70.0396    0.5926 O.3     1  UNL1       -0.4371
     28 O          21.2329   71.5712    1.2568 O.3     1  UNL1       -0.2858
     29 C          22.2257   72.4578    1.7744 C.3     1  UNL1        0.2704
     30 C          22.0331   72.6125    3.2838 C.3     1  UNL1        0.1967
     31 C          20.6273   73.1578    3.5537 C.3     1  UNL1        0.1715
     32 C          20.4339   74.4402    2.7367 C.3     1  UNL1        0.1694
     33 C          20.7461   74.1461    1.2673 C.3     1  UNL1        0.1761
     34 O          22.1851   71.3415    3.9184 O.3     1  UNL1       -0.3775
     35 O          20.4835   73.4464    4.9460 O.3     1  UNL1       -0.3794
     36 O          21.3141   75.4543    3.2235 O.3     1  UNL1       -0.3794
     37 O          22.1042   73.7279    1.1382 O.3     1  UNL1       -0.3258
     38 H          23.0792   71.0340    3.7163 H       1  UNL1        0.2106
     39 H          20.6245   72.6170    5.4198 H       1  UNL1        0.2105
     40 H          21.0855   75.6019    4.1505 H       1  UNL1        0.2105
     41 C          20.5229   75.4121    0.4370 C.3     1  UNL1        0.1693
     42 O          21.6575   76.2707    0.5647 O.3     1  UNL1       -0.3794
     43 H          21.4774   77.0543    0.0273 H       1  UNL1        0.2105
@<TRIPOS>BOND
     1    15    16   ar
     2    15    20   ar
     3    15     6    1
     4    16    17   ar
     5    16    21    2
     6    17    18   ar
     7    17    23    1
     8    18    19   ar
     9    18    22    2
    10    19    20   ar
    11     6     7    1
    12     6    11    1
    13     7     8    1
    14     7     9    1
    15     8    13    1
    16     9    10    1
    17     9    12    1
    18    10    11    1
    19    10     5    1
    20    12    14    1
    21     5     4    1
    22     4     1    1
    23     1     2    2
    24     1     3    1
    25     1    24    1
    26    24    25    1
    27    25    26    2
    28    25    27    1
    29    25    28    1
    30    28    29    1
    31    29    30    1
    32    29    37    1
    33    30    31    1
    34    30    34    1
    35    31    32    1
    36    31    35    1
    37    32    33    1
    38    32    36    1
    39    33    41    1
    40    33    37    1
    41    41    42    1
    42    34    38    1
    43    35    39    1
    44    36    40    1
    45    42    43    1
@<TRIPOS>MOLECULE
GDU
 43 45 0 0 0
SMALL
GASTEIGER

@<TRIPOS>ATOM
      1 P          22.9006   72.0650   -3.1566 P.3     1  UNL1        0.2189
      2 O          22.8051   72.7140   -1.8302 O.2     1  UNL1       -0.5170
      3 O          23.4420   70.5589   -2.9792 O.3     1  UNL1       -0.4371
      4 O          21.4476   72.0352   -3.8457 O.3     1  UNL1       -0.3112
      5 C          20.4979   71.8233   -2.8000 C.3     1  UNL1        0.1811
      6 C          18.0866   71.1947   -5.3918 C.3     1  UNL1        0.2383
      7 C          18.1155   69.8860   -4.5616 C.3     1  UNL1        0.1895
      8 O          16.8402   69.2407   -4.5821 O.3     1  UNL1       -0.3779
      9 C          18.4473   70.4102   -3.1402 C.3     1  UNL1        0.1713
     10 C          19.0867   71.7888   -3.3895 C.3     1  UNL1        0.1764
     11 O          19.1472   71.9844   -4.8130 O.3     1  UNL1       -0.3308
     12 O          17.2545   70.5377   -2.3637 O.3     1  UNL1       -0.3794
     13 H          16.9256   68.4372   -4.0502 H       1  UNL1        0.2106
     14 H          16.8705   69.6532   -2.2929 H       1  UNL1        0.2105
     15 N          18.3602   70.9189   -6.8032 N.ar    1  UNL1       -0.2551
     16 C          17.3389   70.7002   -7.6501 C.ar    1  UNL1        0.3323
     17 N          17.5630   70.4479   -8.9532 N.ar    1  UNL1       -0.2743
     18 C          18.8218   70.4005   -9.4299 C.ar    1  UNL1        0.2626
     19 C          19.9078   70.6232   -8.5482 C.ar    1  UNL1        0.0795
     20 C          19.6546   70.8783   -7.2469 C.ar    1  UNL1        0.0869
     21 O          16.1978   70.7402   -7.2348 O.2     1  UNL1       -0.2464
     22 O          19.0259   70.1675  -10.6083 O.2     1  UNL1       -0.2670
     23 H          16.8137   70.2967   -9.5511 H       1  UNL1        0.1734
     24 O          23.9202   72.8943   -4.0866 O.3     1  UNL1       -0.2703
     25 P          23.5164   74.4464   -3.9531 P.3     1  UNL1        0.2208
     26 O          22.2476   74.5629   -3.2010 O.2     1  UNL1       -0.5170
     27 O          24.6793   75.2377   -3.1684 O.3     1  UNL1       -0.4371
     28 O          23.3322   75.0822   -5.4200 O.3     1  UNL1       -0.2858
     29 C          21.9864   74.8200   -5.8199 C.3     1  UNL1        0.2704
     30 C          21.9878   73.8824   -7.0283 C.3     1  UNL1        0.1967
     31 C          22.7725   74.5393   -8.1681 C.3     1  UNL1        0.1715
     32 C          22.1892   75.9333   -8.4249 C.3     1  UNL1        0.1694
     33 C          22.1744   76.7166   -7.1099 C.3     1  UNL1        0.1761
     34 O          22.6045   72.6438   -6.6723 O.3     1  UNL1       -0.3775
     35 O          22.6592   73.7436   -9.3499 O.3     1  UNL1       -0.3794
     36 O          20.8581   75.8091   -8.9277 O.3     1  UNL1       -0.3794
     37 O          21.3459   76.0474   -6.1603 O.3     1  UNL1       -0.3258
     38 H          22.0831   72.2703   -5.9488 H       1  UNL1        0.2106
     39 H          23.0259   72.8756   -9.1391 H       1  UNL1        0.2105
     40 H          20.9155   75.3059   -9.7503 H       1  UNL1        0.2105
     41 C          21.6253   78.1227   -7.3619 C.3     1  UNL1        0.1693
     42 O          20.2098   78.1221   -7.1685 O.3     1  UNL1       -0.3794
     43 H          19.9041   79.0242   -7.3358 H       1  UNL1        0.2105
@<TRIPOS>BOND
     1    15    16   ar
     2    15    20   ar
     3    15     6    1
     4    16    17   ar
     5    16    21    2
     6    17    18   ar
     7    17    23    1
     8    18    19   ar
     9    18    22    2
    10    19    20   ar
    11     6     7    1
    12     6    11    1
    13     7     8    1
    14     7     9    1
    15     8    13    1
    16     9    10    1
    17     9    12    1
    18    10    11    1
    19    10     5    1
    20    12    14    1
    21     5     4    1
    22     4     1    1
    23     1     2    2
    24     1     3    1
    25     1    24    1
    26    24    25    1
    27    25    26    2
    28    25    27    1
    29    25    28    1
    30    28    29    1
    31    29    30    1
    32    29    37    1
    33    30    31    1
    34    30    34    1
    35    31    32    1
    36    31    35    1
    37    32    33    1
    38    32    36    1
    39    33    41    1
    40    33    37    1
    41    41    42    1
    42    34    38    1
    43    35    39    1
    44    36    40    1
    45    42    43    1
@<TRIPOS>MOLECULE
GDU
 43 45 0 0 0
SMALL
GASTEIGER

@<TRIPOS>ATOM
      1 P          21.9198   70.9193   -1.5685 P.3     1  UNL1        0.2189
      2 O          21.6164   69.5301   -1.1589 O.2     1  UNL1       -0.5170
      3 O          22.5375   70.9174   -3.0556 O.3     1  UNL1       -0.4371
      4 O          20.5688   71.7918   -1.5497 O.3     1  UNL1       -0.3112
      5 C          20.4495   72.3975   -2.8379 C.3     1  UNL1        0.1811
      6 C          18.1047   71.3236   -5.3432 C.3     1  UNL1        0.2383
      7 C          18.3221   70.0737   -4.4525 C.3     1  UNL1        0.1895
      8 O          17.1449   69.2637   -4.4142 O.3     1  UNL1       -0.3779
      9 C          18.6023   70.7080   -3.0653 C.3     1  UNL1        0.1713
     10 C          19.0468   72.1454   -3.3939 C.3     1  UNL1        0.1764
     11 O          19.0583   72.2758   -4.8261 O.3     1  UNL1       -0.3308
     12 O          17.4154   70.7138   -2.2696 O.3     1  UNL1       -0.3794
     13 H          17.3458   68.5065   -3.8467 H       1  UNL1        0.2106
     14 H          17.1550   69.7907   -2.1484 H       1  UNL1        0.2105
     15 N          18.3910   71.0165   -6.7455 N.ar    1  UNL1       -0.2551
     16 C          17.3851   70.6869   -7.5748 C.ar    1  UNL1        0.3323
     17 N          17.6208   70.4035   -8.8694 N.ar    1  UNL1       -0.2743
     18 C          18.8768   70.4362   -9.3548 C.ar    1  UNL1        0.2626
     19 C          19.9470   70.7762   -8.4915 C.ar    1  UNL1        0.0795
     20 C          19.6821   71.0601   -7.1986 C.ar    1  UNL1        0.0869
     21 O          16.2468   70.6536   -7.1514 O.2     1  UNL1       -0.2464
     22 O          19.0917   70.1752  -10.5254 O.2     1  UNL1       -0.2670
     23 H          16.8823   70.1717   -9.4547 H       1  UNL1        0.1734
     24 O          22.9871   71.5582   -0.5463 O.3     1  UNL1       -0.2703
     25 P          22.3781   71.3845    0.9332 P.3     1  UNL1        0.2208
     26 O          20.9363   71.0664    0.8386 O.2     1  UNL1       -0.5170
     27 O          23.1429   70.1864    1.6908 O.3     1  UNL1       -0.4371
     28 O          22.5740   72.7517    1.7593 O.3     1  UNL1       -0.2858
     29 C          22.7547   72.3870    3.1283 C.3     1  UNL1        0.2704
     30 C          21.5339   72.8273    3.9378 C.3     1  UNL1        0.1967
     31 C          21.3644   74.3434    3.7997 C.3     1  UNL1        0.1715
     32 C          22.6834   75.0213    4.1876 C.3     1  UNL1        0.1694
     33 C          23.8175   74.4155    3.3571 C.3     1  UNL1        0.1761
     34 O          20.3678   72.1668    3.4428 O.3     1  UNL1       -0.3775
     35 O          20.3192   74.7905    4.6657 O.3     1  UNL1       -0.3794
     36 O          22.9377   74.8115    5.5774 O.3     1  UNL1       -0.3794
     37 O          23.9265   73.0205    3.6363 O.3     1  UNL1       -0.3258
     38 H          20.5214   71.2174    3.5424 H       1  UNL1        0.2106
     39 H          19.5147   74.3311    4.3938 H       1  UNL1        0.2105
     40 H          22.1977   75.2028    6.0595 H       1  UNL1        0.2105
     41 C          25.1344   75.1095    3.7122 C.3     1  UNL1        0.1693
     42 O          25.6802   74.5182    4.8926 O.3     1  UNL1       -0.3794
     43 H          26.5075   74.9822    5.0813 H       1  UNL1        0.2105
@<TRIPOS>BOND
     1    15    16   ar
     2    15    20   ar
     3    15     6    1
     4    16    17   ar
     5    16    21    2
     6    17    18   ar
     7    17    23    1
     8    18    19   ar
     9    18    22    2
    10    19    20   ar
    11     6     7    1
    12     6    11    1
    13     7     8    1
    14     7     9    1
    15     8    13    1
    16     9    10    1
    17     9    12    1
    18    10    11    1
    19    10     5    1
    20    12    14    1
    21     5     4    1
    22     4     1    1
    23     1     2    2
    24     1     3    1
    25     1    24    1
    26    24    25    1
    27    25    26    2
    28    25    27    1
    29    25    28    1
    30    28    29    1
    31    29    30    1
    32    29    37    1
    33    30    31    1
    34    30    34    1
    35    31    32    1
    36    31    35    1
    37    32    33    1
    38    32    36    1
    39    33    41    1
    40    33    37    1
    41    41    42    1
    42    34    38    1
    43    35    39    1
    44    36    40    1
    45    42    43    1
@<TRIPOS>MOLECULE
GDU
 43 45 0 0 0
SMALL
GASTEIGER

@<TRIPOS>ATOM
      1 P          22.4371   71.5490   -2.5015 P.3     1  UNL1        0.2189
      2 O          22.0275   70.9272   -1.2229 O.2     1  UNL1       -0.5170
      3 O          23.4772   70.5814   -3.2598 O.3     1  UNL1       -0.4371
      4 O          21.1419   71.7756   -3.4278 O.3     1  UNL1       -0.3112
      5 C          20.1329   72.3493   -2.5950 C.3     1  UNL1        0.1811
      6 C          17.9252   71.4096   -5.2728 C.3     1  UNL1        0.2383
      7 C          18.0241   70.1415   -4.3868 C.3     1  UNL1        0.1895
      8 O          16.8125   69.3849   -4.4423 O.3     1  UNL1       -0.3779
      9 C          18.2337   70.7473   -2.9746 C.3     1  UNL1        0.1713
     10 C          18.7631   72.1667   -3.2511 C.3     1  UNL1        0.1764
     11 O          18.8812   72.3122   -4.6770 O.3     1  UNL1       -0.3308
     12 O          16.9951   70.7977   -2.2637 O.3     1  UNL1       -0.3794
     13 H          16.9394   68.6132   -3.8729 H       1  UNL1        0.2106
     14 H          16.6863   69.8860   -2.1741 H       1  UNL1        0.2105
     15 N          18.2957   71.1054   -6.6559 N.ar    1  UNL1       -0.2551
     16 C          17.3408   70.7856   -7.5471 C.ar    1  UNL1        0.3323
     17 N          17.6543   70.5050   -8.8257 N.ar    1  UNL1       -0.2743
     18 C          18.9381   70.5307   -9.2324 C.ar    1  UNL1        0.2626
     19 C          19.9551   70.8602   -8.3032 C.ar    1  UNL1        0.0795
     20 C          19.6126   71.1415   -7.0281 C.ar    1  UNL1        0.0869
     21 O          16.1783   70.7588   -7.1950 O.2     1  UNL1       -0.2464
     22 O          19.2233   70.2722  -10.3884 O.2     1  UNL1       -0.2670
     23 H          16.9519   70.2804   -9.4565 H       1  UNL1        0.1734
     24 O          23.1420   72.9662   -2.2064 O.3     1  UNL1       -0.2703
     25 P          23.4830   73.6243   -3.6349 P.3     1  UNL1        0.2208
     26 O          23.3635   72.5964   -4.6924 O.2     1  UNL1       -0.5170
     27 O          22.4499   74.8233   -3.9335 O.3     1  UNL1       -0.4371
     28 O          24.9843   74.2036   -3.6155 O.3     1  UNL1       -0.2858
     29 C          24.8835   75.6101   -3.3889 C.3     1  UNL1        0.2704
     30 C          25.4975   76.3616   -4.5710 C.3     1  UNL1        0.1967
     31 C          26.9629   75.9417   -4.7219 C.3     1  UNL1        0.1715
     32 C          27.6724   76.1474   -3.3788 C.3     1  UNL1        0.1694
     33 C          26.8938   75.4099   -2.2865 C.3     1  UNL1        0.1761
     34 O          24.7812   76.0423   -5.7653 O.3     1  UNL1       -0.3775
     35 O          27.5905   76.7414   -5.7265 O.3     1  UNL1       -0.3794
     36 O          27.7258   77.5421   -3.0753 O.3     1  UNL1       -0.3794
     37 O          25.5756   75.9471   -2.1888 O.3     1  UNL1       -0.3258
     38 H          23.8651   76.3165   -5.6228 H       1  UNL1        0.2106
     39 H          27.1059   76.5900   -6.5478 H       1  UNL1        0.2105
     40 H          28.2185   77.9654   -3.7903 H       1  UNL1        0.2105
     41 C          27.6129   75.5804   -0.9465 C.3     1  UNL1        0.1693
     42 O          26.7245   76.1822   -0.0033 O.3     1  UNL1       -0.3794
     43 H          27.2147   76.2712    0.8256 H       1  UNL1        0.2105
@<TRIPOS>BOND
     1    15    16   ar
     2    15    20   ar
     3    15     6    1
     4    16    17   ar
     5    16    21    2
     6    17    18   ar
     7    17    23    1
     8    18    19   ar
     9    18    22    2
    10    19    20   ar
    11     6     7    1
    12     6    11    1
    13     7     8    1
    14     7     9    1
    15     8    13    1
    16     9    10    1
    17     9    12    1
    18    10    11    1
    19    10     5    1
    20    12    14    1
    21     5     4    1
    22     4     1    1
    23     1     2    2
    24     1     3    1
    25     1    24    1
    26    24    25    1
    27    25    26    2
    28    25    27    1
    29    25    28    1
    30    28    29    1
    31    29    30    1
    32    29    37    1
    33    30    31    1
    34    30    34    1
    35    31    32    1
    36    31    35    1
    37    32    33    1
    38    32    36    1
    39    33    41    1
    40    33    37    1
    41    41    42    1
    42    34    38    1
    43    35    39    1
    44    36    40    1
    45    42    43    1
@<TRIPOS>MOLECULE
GDU
 43 45 0 0 0
SMALL
GASTEIGER

@<TRIPOS>ATOM
      1 P          21.7440   70.3061   -0.4019 P.3     1  UNL1        0.2189
      2 O          22.2731   69.1268    0.3183 O.2     1  UNL1       -0.5170
      3 O          22.9676   71.1500   -1.0214 O.3     1  UNL1       -0.4371
      4 O          20.7727   69.8198   -1.5880 O.3     1  UNL1       -0.3112
      5 C          20.9239   70.7557   -2.6566 C.3     1  UNL1        0.1811
      6 C          18.3935   71.0412   -5.1949 C.3     1  UNL1        0.2383
      7 C          18.0864   69.6957   -4.4890 C.3     1  UNL1        0.1895
      8 O          16.6854   69.4136   -4.5164 O.3     1  UNL1       -0.3779
      9 C          18.5668   69.9718   -3.0404 C.3     1  UNL1        0.1713
     10 C          19.5455   71.1514   -3.1891 C.3     1  UNL1        0.1764
     11 O          19.6342   71.4634   -4.5902 O.3     1  UNL1       -0.3308
     12 O          17.4625   70.3311   -2.2078 O.3     1  UNL1       -0.3794
     13 H          16.5624   68.5676   -4.0636 H       1  UNL1        0.2106
     14 H          16.8586   69.5762   -2.2022 H       1  UNL1        0.2105
     15 N          18.5628   70.8435   -6.6354 N.ar    1  UNL1       -0.2551
     16 C          17.4806   70.7718   -7.4304 C.ar    1  UNL1        0.3323
     17 N          17.6087   70.5940   -8.7585 N.ar    1  UNL1       -0.2743
     18 C          18.8300   70.4746   -9.3138 C.ar    1  UNL1        0.2626
     19 C          19.9788   70.5423   -8.4879 C.ar    1  UNL1        0.0795
     20 C          19.8219   70.7255   -7.1597 C.ar    1  UNL1        0.0869
     21 O          16.3724   70.8783   -6.9439 O.2     1  UNL1       -0.2464
     22 O          18.9469   70.3089  -10.5152 O.2     1  UNL1       -0.2670
     23 H          16.8170   70.5489   -9.3178 H       1  UNL1        0.1734
     24 O          20.9186   71.2339    0.6230 O.3     1  UNL1       -0.2703
     25 P          22.0008   72.0783    1.4632 P.3     1  UNL1        0.2208
     26 O          22.8653   71.1510    2.2261 O.2     1  UNL1       -0.5170
     27 O          22.9061   72.9461    0.4525 O.3     1  UNL1       -0.4371
     28 O          21.2399   73.0648    2.4819 O.3     1  UNL1       -0.2858
     29 C          22.2475   73.7445    3.2319 C.3     1  UNL1        0.2704
     30 C          21.9903   73.5464    4.7265 C.3     1  UNL1        0.1967
     31 C          20.6005   74.0914    5.0698 C.3     1  UNL1        0.1715
     32 C          20.5072   75.5403    4.5783 C.3     1  UNL1        0.1694
     33 C          20.8752   75.5868    3.0932 C.3     1  UNL1        0.1761
     34 O          22.0517   72.1544    5.0424 O.3     1  UNL1       -0.3775
     35 O          20.4040   74.0483    6.4848 O.3     1  UNL1       -0.3794
     36 O          21.4099   76.3573    5.3250 O.3     1  UNL1       -0.3794
     37 O          22.2166   75.1343    2.9154 O.3     1  UNL1       -0.3258
     38 H          22.9390   71.8531    4.8039 H       1  UNL1        0.2106
     39 H          20.4829   73.1233    6.7502 H       1  UNL1        0.2105
     40 H          21.1444   76.2931    6.2517 H       1  UNL1        0.2105
     41 C          20.7519   77.0246    2.5838 C.3     1  UNL1        0.1693
     42 O          19.5927   77.6337    3.1549 O.3     1  UNL1       -0.3794
     43 H          19.5520   78.5363    2.8100 H       1  UNL1        0.2105
@<TRIPOS>BOND
     1    15    16   ar
     2    15    20   ar
     3    15     6    1
     4    16    17   ar
     5    16    21    2
     6    17    18   ar
     7    17    23    1
     8    18    19   ar
     9    18    22    2
    10    19    20   ar
    11     6     7    1
    12     6    11    1
    13     7     8    1
    14     7     9    1
    15     8    13    1
    16     9    10    1
    17     9    12    1
    18    10    11    1
    19    10     5    1
    20    12    14    1
    21     5     4    1
    22     4     1    1
    23     1     2    2
    24     1     3    1
    25     1    24    1
    26    24    25    1
    27    25    26    2
    28    25    27    1
    29    25    28    1
    30    28    29    1
    31    29    30    1
    32    29    37    1
    33    30    31    1
    34    30    34    1
    35    31    32    1
    36    31    35    1
    37    32    33    1
    38    32    36    1
    39    33    41    1
    40    33    37    1
    41    41    42    1
    42    34    38    1
    43    35    39    1
    44    36    40    1
    45    42    43    1
@<TRIPOS>MOLECULE
GDU
 43 45 0 0 0
SMALL
GASTEIGER

@<TRIPOS>ATOM
      1 P          22.1031   73.9671   -6.7525 P.3     1  UNL1        0.2189
      2 O          22.8628   72.7264   -7.0226 O.2     1  UNL1       -0.5170
      3 O          23.1212   75.2117   -6.6664 O.3     1  UNL1       -0.4371
      4 O          21.0467   74.2191   -7.9389 O.3     1  UNL1       -0.3112
      5 C          21.3143   73.2416   -8.9456 C.3     1  UNL1        0.1811
      6 C          18.6446   71.1862   -7.6905 C.3     1  UNL1        0.2383
      7 C          17.9970   72.5786   -7.9023 C.3     1  UNL1        0.1895
      8 O          16.6133   72.4517   -8.2375 O.3     1  UNL1       -0.3779
      9 C          18.8079   73.1349   -9.1016 C.3     1  UNL1        0.1713
     10 C          20.1087   72.3108   -9.0884 C.3     1  UNL1        0.1764
     11 O          20.0430   71.4203   -7.9610 O.3     1  UNL1       -0.3308
     12 O          18.0937   72.9354  -10.3231 O.3     1  UNL1       -0.3794
     13 H          16.2715   73.3491   -8.3552 H       1  UNL1        0.2106
     14 H          17.2648   73.4271  -10.2464 H       1  UNL1        0.2105
     15 N          18.4550   70.7310   -6.3122 N.ar    1  UNL1       -0.2551
     16 C          17.3199   70.0966   -5.9696 C.ar    1  UNL1        0.3323
     17 N          17.1221   69.6649   -4.7101 N.ar    1  UNL1       -0.2743
     18 C          18.0596   69.8716   -3.7653 C.ar    1  UNL1        0.2626
     19 C          19.2578   70.5436   -4.1104 C.ar    1  UNL1        0.0795
     20 C          19.4323   70.9623   -5.3819 C.ar    1  UNL1        0.0869
     21 O          16.4653   69.9025   -6.8111 O.2     1  UNL1       -0.2464
     22 O          17.8795   69.4855   -2.6239 O.2     1  UNL1       -0.2670
     23 H          16.2987   69.2050   -4.4815 H       1  UNL1        0.1734
     24 O          21.3174   73.8206   -5.3548 O.3     1  UNL1       -0.2703
     25 P          22.4339   73.6756   -4.2048 P.3     1  UNL1        0.2208
     26 O          23.4866   72.7384   -4.6550 O.2     1  UNL1       -0.5170
     27 O          23.0897   75.1167   -3.9092 O.3     1  UNL1       -0.4371
     28 O          21.7515   73.1121   -2.8607 O.3     1  UNL1       -0.2858
     29 C          22.8123   72.6961   -1.9997 C.3     1  UNL1        0.2704
     30 C          22.5929   71.2392   -1.5887 C.3     1  UNL1        0.1967
     31 C          21.2412   71.1197   -0.8782 C.3     1  UNL1        0.1715
     32 C          21.1996   72.1346    0.2698 C.3     1  UNL1        0.1694
     33 C          21.5229   73.5249   -0.2830 C.3     1  UNL1        0.1761
     34 O          22.5997   70.4080   -2.7507 O.3     1  UNL1       -0.3775
     35 O          21.0870   69.7972   -0.3589 O.3     1  UNL1       -0.3794
     36 O          22.1619   71.7738    1.2616 O.3     1  UNL1       -0.3794
     37 O          22.8358   73.5274   -0.8417 O.3     1  UNL1       -0.3258
     38 H          23.4643   70.5201   -3.1689 H       1  UNL1        0.2106
     39 H          21.1313   69.1940   -1.1116 H       1  UNL1        0.2105
     40 H          21.9227   70.8922    1.5760 H       1  UNL1        0.2105
     41 C          21.4503   74.5516    0.8495 C.3     1  UNL1        0.1693
     42 O          20.4316   74.1679    1.7747 O.3     1  UNL1       -0.3794
     43 H          20.4190   74.8387    2.4712 H       1  UNL1        0.2105
@<TRIPOS>BOND
     1    15    16   ar
     2    15    20   ar
     3    15     6    1
     4    16    17   ar
     5    16    21    2
     6    17    18   ar
     7    17    23    1
     8    18    19   ar
     9    18    22    2
    10    19    20   ar
    11     6     7    1
    12     6    11    1
    13     7     8    1
    14     7     9    1
    15     8    13    1
    16     9    10    1
    17     9    12    1
    18    10    11    1
    19    10     5    1
    20    12    14    1
    21     5     4    1
    22     4     1    1
    23     1     2    2
    24     1     3    1
    25     1    24    1
    26    24    25    1
    27    25    26    2
    28    25    27    1
    29    25    28    1
    30    28    29    1
    31    29    30    1
    32    29    37    1
    33    30    31    1
    34    30    34    1
    35    31    32    1
    36    31    35    1
    37    32    33    1
    38    32    36    1
    39    33    41    1
    40    33    37    1
    41    41    42    1
    42    34    38    1
    43    35    39    1
    44    36    40    1
    45    42    43    1
@<TRIPOS>MOLECULE
GDU
 43 45 0 0 0
SMALL
GASTEIGER

@<TRIPOS>ATOM
      1 P          22.8992   72.0499   -3.1193 P.3     1  UNL1        0.2189
      2 O          22.8165   72.4599   -1.6999 O.2     1  UNL1       -0.5170
      3 O          23.4574   70.5422   -3.2105 O.3     1  UNL1       -0.4371
      4 O          21.4370   72.1220   -3.7853 O.3     1  UNL1       -0.3112
      5 C          20.4937   71.8853   -2.7390 C.3     1  UNL1        0.1811
      6 C          18.0895   71.2179   -5.3278 C.3     1  UNL1        0.2383
      7 C          18.1435   69.9085   -4.5000 C.3     1  UNL1        0.1895
      8 O          16.8799   69.2404   -4.5195 O.3     1  UNL1       -0.3779
      9 C          18.4682   70.4361   -3.0782 C.3     1  UNL1        0.1713
     10 C          19.0823   71.8264   -3.3262 C.3     1  UNL1        0.1764
     11 O          19.1367   72.0256   -4.7494 O.3     1  UNL1       -0.3308
     12 O          17.2747   70.5406   -2.2994 O.3     1  UNL1       -0.3794
     13 H          16.9807   68.4376   -3.9892 H       1  UNL1        0.2106
     14 H          16.9069   69.6493   -2.2296 H       1  UNL1        0.2105
     15 N          18.3655   70.9496   -6.7401 N.ar    1  UNL1       -0.2551
     16 C          17.3468   70.7131   -7.5855 C.ar    1  UNL1        0.3323
     17 N          17.5731   70.4672   -8.8894 N.ar    1  UNL1       -0.2743
     18 C          18.8317   70.4443   -9.3686 C.ar    1  UNL1        0.2626
     19 C          19.9150   70.6860   -8.4886 C.ar    1  UNL1        0.0795
     20 C          19.6596   70.9342   -7.1864 C.ar    1  UNL1        0.0869
     21 O          16.2060   70.7309   -7.1679 O.2     1  UNL1       -0.2464
     22 O          19.0379   70.2170  -10.5477 O.2     1  UNL1       -0.2670
     23 H          16.8257   70.3028   -9.4861 H       1  UNL1        0.1734
     24 O          23.8977   73.0388   -3.9052 O.3     1  UNL1       -0.2703
     25 P          23.7076   74.5017   -3.2620 P.3     1  UNL1        0.2208
     26 O          22.5078   74.5075   -2.3963 O.2     1  UNL1       -0.5170
     27 O          25.0049   74.8737   -2.3828 O.3     1  UNL1       -0.4371
     28 O          23.5281   75.5866   -4.4370 O.3     1  UNL1       -0.2858
     29 C          24.8089   76.1807   -4.6525 C.3     1  UNL1        0.2704
     30 C          24.7353   77.6763   -4.3411 C.3     1  UNL1        0.1967
     31 C          23.6805   78.3224   -5.2447 C.3     1  UNL1        0.1715
     32 C          24.0043   77.9746   -6.7021 C.3     1  UNL1        0.1694
     33 C          24.1314   76.4550   -6.8347 C.3     1  UNL1        0.1761
     34 O          24.3736   77.8629   -2.9716 O.3     1  UNL1       -0.3775
     35 O          23.7028   79.7407   -5.0707 O.3     1  UNL1       -0.3794
     36 O          25.2332   78.5966   -7.0800 O.3     1  UNL1       -0.3794
     37 O          25.1981   75.9875   -6.0103 O.3     1  UNL1       -0.3258
     38 H          25.0596   77.4353   -2.4412 H       1  UNL1        0.2106
     39 H          23.5065   79.9117   -4.1409 H       1  UNL1        0.2105
     40 H          25.1087   79.5489   -6.9755 H       1  UNL1        0.2105
     41 C          24.4209   76.0946   -8.2936 C.3     1  UNL1        0.1693
     42 O          25.8117   75.8048   -8.4448 O.3     1  UNL1       -0.3794
     43 H          25.9516   75.5824   -9.3755 H       1  UNL1        0.2105
@<TRIPOS>BOND
     1    15    16   ar
     2    15    20   ar
     3    15     6    1
     4    16    17   ar
     5    16    21    2
     6    17    18   ar
     7    17    23    1
     8    18    19   ar
     9    18    22    2
    10    19    20   ar
    11     6     7    1
    12     6    11    1
    13     7     8    1
    14     7     9    1
    15     8    13    1
    16     9    10    1
    17     9    12    1
    18    10    11    1
    19    10     5    1
    20    12    14    1
    21     5     4    1
    22     4     1    1
    23     1     2    2
    24     1     3    1
    25     1    24    1
    26    24    25    1
    27    25    26    2
    28    25    27    1
    29    25    28    1
    30    28    29    1
    31    29    30    1
    32    29    37    1
    33    30    31    1
    34    30    34    1
    35    31    32    1
    36    31    35    1
    37    32    33    1
    38    32    36    1
    39    33    41    1
    40    33    37    1
    41    41    42    1
    42    34    38    1
    43    35    39    1
    44    36    40    1
    45    42    43    1
@<TRIPOS>MOLECULE
GDU
 43 45 0 0 0
SMALL
GASTEIGER

@<TRIPOS>ATOM
      1 P          21.5172   70.6873   -1.2123 P.3     1  UNL1        0.2189
      2 O          21.1960   69.9649    0.0385 O.2     1  UNL1       -0.5170
      3 O          21.6474   69.6331   -2.4225 O.3     1  UNL1       -0.4371
      4 O          20.3458   71.7394   -1.5408 O.3     1  UNL1       -0.3112
      5 C          19.4069   71.0646   -2.3796 C.3     1  UNL1        0.1811
      6 C          18.1333   72.3659   -5.4799 C.3     1  UNL1        0.2383
      7 C          16.9618   71.5355   -4.8960 C.3     1  UNL1        0.1895
      8 O          15.7019   72.0857   -5.2874 O.3     1  UNL1       -0.3779
      9 C          17.1828   71.6912   -3.3688 C.3     1  UNL1        0.1713
     10 C          18.6659   72.0866   -3.2437 C.3     1  UNL1        0.1764
     11 O          19.2216   72.0992   -4.5700 O.3     1  UNL1       -0.3308
     12 O          16.3385   72.7176   -2.8439 O.3     1  UNL1       -0.3794
     13 H          15.0186   71.5255   -4.8936 H       1  UNL1        0.2106
     14 H          15.4266   72.4396   -3.0048 H       1  UNL1        0.2105
     15 N          18.4673   71.9116   -6.8308 N.ar    1  UNL1       -0.2551
     16 C          17.8641   72.4754   -7.8922 C.ar    1  UNL1        0.3323
     17 N          18.1558   72.0785   -9.1449 N.ar    1  UNL1       -0.2743
     18 C          19.0545   71.0976   -9.3555 C.ar    1  UNL1        0.2626
     19 C          19.6935   70.4906   -8.2467 C.ar    1  UNL1        0.0795
     20 C          19.3856   70.9107   -7.0013 C.ar    1  UNL1        0.0869
     21 O          17.0516   73.3617   -7.7179 O.2     1  UNL1       -0.2464
     22 O          19.3157   70.7344  -10.4888 O.2     1  UNL1       -0.2670
     23 H          17.7140   72.4995   -9.8995 H       1  UNL1        0.1734
     24 O          22.9114   71.4728   -1.0343 O.3     1  UNL1       -0.2703
     25 P          22.5605   73.0429   -0.9935 P.3     1  UNL1        0.2208
     26 O          23.8105   73.8244   -0.8672 O.2     1  UNL1       -0.5170
     27 O          21.8033   73.4588   -2.3529 O.3     1  UNL1       -0.4371
     28 O          21.6060   73.3481    0.2658 O.3     1  UNL1       -0.2858
     29 C          22.4594   73.5670    1.3898 C.3     1  UNL1        0.2704
     30 C          21.8677   72.8776    2.6203 C.3     1  UNL1        0.1967
     31 C          20.4691   73.4438    2.8846 C.3     1  UNL1        0.1715
     32 C          20.5680   74.9707    2.9768 C.3     1  UNL1        0.1694
     33 C          21.2570   75.5018    1.7174 C.3     1  UNL1        0.1761
     34 O          21.7797   71.4712    2.3849 O.3     1  UNL1       -0.3775
     35 O          19.9627   72.9180    4.1133 O.3     1  UNL1       -0.3794
     36 O          21.3277   75.3315    4.1312 O.3     1  UNL1       -0.3794
     37 O          22.5772   74.9675    1.6294 O.3     1  UNL1       -0.3258
     38 H          22.6794   71.1597    2.2165 H       1  UNL1        0.2106
     39 H          19.9291   71.9581    4.0142 H       1  UNL1        0.2105
     40 H          20.8608   74.9724    4.8970 H       1  UNL1        0.2105
     41 C          21.3301   77.0290    1.7836 C.3     1  UNL1        0.1693
     42 O          22.1251   77.5144    0.7004 O.3     1  UNL1       -0.3794
     43 H          22.1452   78.4782    0.7780 H       1  UNL1        0.2105
@<TRIPOS>BOND
     1    15    16   ar
     2    15    20   ar
     3    15     6    1
     4    16    17   ar
     5    16    21    2
     6    17    18   ar
     7    17    23    1
     8    18    19   ar
     9    18    22    2
    10    19    20   ar
    11     6     7    1
    12     6    11    1
    13     7     8    1
    14     7     9    1
    15     8    13    1
    16     9    10    1
    17     9    12    1
    18    10    11    1
    19    10     5    1
    20    12    14    1
    21     5     4    1
    22     4     1    1
    23     1     2    2
    24     1     3    1
    25     1    24    1
    26    24    25    1
    27    25    26    2
    28    25    27    1
    29    25    28    1
    30    28    29    1
    31    29    30    1
    32    29    37    1
    33    30    31    1
    34    30    34    1
    35    31    32    1
    36    31    35    1
    37    32    33    1
    38    32    36    1
    39    33    41    1
    40    33    37    1
    41    41    42    1
    42    34    38    1
    43    35    39    1
    44    36    40    1
    45    42    43    1
@<TRIPOS>MOLECULE
GDU
 43 45 0 0 0
SMALL
GASTEIGER

@<TRIPOS>ATOM
      1 P          22.5042   71.4400   -2.3763 P.3     1  UNL1        0.2189
      2 O          23.5448   71.4314   -3.4283 O.2     1  UNL1       -0.5170
      3 O          21.7485   72.8619   -2.3807 O.3     1  UNL1       -0.4371
      4 O          21.4419   70.2668   -2.6620 O.3     1  UNL1       -0.3112
      5 C          20.7100   70.6464   -3.8286 C.3     1  UNL1        0.1811
      6 C          17.2342   71.1025   -4.6274 C.3     1  UNL1        0.2383
      7 C          17.5264   69.6244   -4.9916 C.3     1  UNL1        0.1895
      8 O          16.3620   68.8151   -4.8115 O.3     1  UNL1       -0.3779
      9 C          18.6259   69.2480   -3.9645 C.3     1  UNL1        0.1713
     10 C          19.2106   70.6042   -3.5283 C.3     1  UNL1        0.1764
     11 O          18.5332   71.6268   -4.2790 O.3     1  UNL1       -0.3308
     12 O          18.0541   68.5604   -2.8500 O.3     1  UNL1       -0.3794
     13 H          16.6099   67.9120   -5.0541 H       1  UNL1        0.2106
     14 H          17.6537   67.7511   -3.1956 H       1  UNL1        0.2105
     15 N          16.6801   71.8194   -5.7770 N.ar    1  UNL1       -0.2551
     16 C          16.9230   71.3725   -7.0219 C.ar    1  UNL1        0.3323
     17 N          16.4224   72.0112   -8.0958 N.ar    1  UNL1       -0.2743
     18 C          15.6740   73.1201   -7.9398 C.ar    1  UNL1        0.2626
     19 C          15.4146   73.6057   -6.6347 C.ar    1  UNL1        0.0795
     20 C          15.9254   72.9436   -5.5749 C.ar    1  UNL1        0.0869
     21 O          17.5960   70.3732   -7.1784 O.2     1  UNL1       -0.2464
     22 O          15.2244   73.7016   -8.9115 O.2     1  UNL1       -0.2670
     23 H          16.6042   71.6722   -8.9868 H       1  UNL1        0.1734
     24 O          23.1927   71.2042   -0.9400 O.3     1  UNL1       -0.2703
     25 P          22.0038   71.1430    0.1430 P.3     1  UNL1        0.2208
     26 O          20.7840   71.7549   -0.4288 O.2     1  UNL1       -0.5170
     27 O          21.7046   69.6072    0.5249 O.3     1  UNL1       -0.4371
     28 O          22.4397   71.9486    1.4662 O.3     1  UNL1       -0.2858
     29 C          21.5362   73.0466    1.6002 C.3     1  UNL1        0.2704
     30 C          22.2480   74.3424    1.2084 C.3     1  UNL1        0.1967
     31 C          23.4693   74.5336    2.1130 C.3     1  UNL1        0.1715
     32 C          23.0135   74.4558    3.5745 C.3     1  UNL1        0.1694
     33 C          22.2448   73.1494    3.7873 C.3     1  UNL1        0.1761
     34 O          22.6678   74.2645   -0.1550 O.3     1  UNL1       -0.3775
     35 O          24.0598   75.8099    1.8589 O.3     1  UNL1       -0.3794
     36 O          22.1672   75.5675    3.8708 O.3     1  UNL1       -0.3794
     37 O          21.0887   73.1294    2.9513 O.3     1  UNL1       -0.3258
     38 H          21.8698   74.1374   -0.6859 H       1  UNL1        0.2106
     39 H          24.3194   75.8181    0.9290 H       1  UNL1        0.2105
     40 H          22.6897   76.3656    3.7178 H       1  UNL1        0.2105
     41 C          21.8146   73.0457    5.2523 C.3     1  UNL1        0.1693
     42 O          20.4358   73.4009    5.3693 O.3     1  UNL1       -0.3794
     43 H          20.2049   73.3220    6.3051 H       1  UNL1        0.2105
@<TRIPOS>BOND
     1    15    16   ar
     2    15    20   ar
     3    15     6    1
     4    16    17   ar
     5    16    21    2
     6    17    18   ar
     7    17    23    1
     8    18    19   ar
     9    18    22    2
    10    19    20   ar
    11     6     7    1
    12     6    11    1
    13     7     8    1
    14     7     9    1
    15     8    13    1
    16     9    10    1
    17     9    12    1
    18    10    11    1
    19    10     5    1
    20    12    14    1
    21     5     4    1
    22     4     1    1
    23     1     2    2
    24     1     3    1
    25     1    24    1
    26    24    25    1
    27    25    26    2
    28    25    27    1
    29    25    28    1
    30    28    29    1
    31    29    30    1
    32    29    37    1
    33    30    31    1
    34    30    34    1
    35    31    32    1
    36    31    35    1
    37    32    33    1
    38    32    36    1
    39    33    41    1
    40    33    37    1
    41    41    42    1
    42    34    38    1
    43    35    39    1
    44    36    40    1
    45    42    43    1
@<TRIPOS>MOLECULE
GDU
 43 45 0 0 0
SMALL
GASTEIGER

@<TRIPOS>ATOM
      1 P          22.9291   74.2949   -4.2833 P.3     1  UNL1        0.2189
      2 O          23.6292   75.4369   -3.6545 O.2     1  UNL1       -0.5170
      3 O          21.4445   74.1729   -3.6715 O.3     1  UNL1       -0.4371
      4 O          22.8372   74.5300   -5.8717 O.3     1  UNL1       -0.3112
      5 C          21.7690   75.4524   -6.0924 C.3     1  UNL1        0.1811
      6 C          19.3540   73.8380   -8.2111 C.3     1  UNL1        0.2383
      7 C          18.6937   75.1865   -7.8257 C.3     1  UNL1        0.1895
      8 O          17.8361   75.6514   -8.8705 O.3     1  UNL1       -0.3779
      9 C          19.9243   76.1166   -7.6652 C.3     1  UNL1        0.1713
     10 C          21.0983   75.1473   -7.4331 C.3     1  UNL1        0.1764
     11 O          20.5594   73.8141   -7.4175 O.3     1  UNL1       -0.3308
     12 O          20.1283   76.8847   -8.8528 O.3     1  UNL1       -0.3794
     13 H          17.4585   76.4894   -8.5692 H       1  UNL1        0.2106
     14 H          19.3367   77.4259   -8.9757 H       1  UNL1        0.2105
     15 N          18.4826   72.7155   -7.8595 N.ar    1  UNL1       -0.2551
     16 C          18.2705   71.7313   -8.7510 C.ar    1  UNL1        0.3323
     17 N          17.4767   70.6863   -8.4515 N.ar    1  UNL1       -0.2743
     18 C          16.8709   70.6147   -7.2506 C.ar    1  UNL1        0.2626
     19 C          17.0806   71.6471   -6.3037 C.ar    1  UNL1        0.0795
     20 C          17.8849   72.6815   -6.6284 C.ar    1  UNL1        0.0869
     21 O          18.8105   71.7818   -9.8382 O.2     1  UNL1       -0.2464
     22 O          16.1484   69.6716   -6.9804 O.2     1  UNL1       -0.2670
     23 H          17.3382   69.9827   -9.1054 H       1  UNL1        0.1734
     24 O          23.7435   72.9381   -3.9865 O.3     1  UNL1       -0.2703
     25 P          22.6788   71.8668   -3.4308 P.3     1  UNL1        0.2208
     26 O          21.5716   71.7228   -4.4016 O.2     1  UNL1       -0.5170
     27 O          23.4048   70.4432   -3.2306 O.3     1  UNL1       -0.4371
     28 O          22.0938   72.3726   -2.0194 O.3     1  UNL1       -0.2858
     29 C          23.1688   72.3172   -1.0808 C.3     1  UNL1        0.2704
     30 C          22.7469   71.4801    0.1278 C.3     1  UNL1        0.1967
     31 C          21.5056   72.1132    0.7639 C.3     1  UNL1        0.1715
     32 C          21.8057   73.5862    1.0635 C.3     1  UNL1        0.1694
     33 C          22.2975   74.2645   -0.2175 C.3     1  UNL1        0.1761
     34 O          22.4443   70.1490   -0.2941 O.3     1  UNL1       -0.3775
     35 O          21.1863   71.4293    1.9775 O.3     1  UNL1       -0.3794
     36 O          22.8127   73.6730    2.0727 O.3     1  UNL1       -0.3794
     37 O          23.5004   73.6391   -0.6621 O.3     1  UNL1       -0.3258
     38 H          23.2497   69.7932   -0.6938 H       1  UNL1        0.2106
     39 H          21.0175   70.5079    1.7435 H       1  UNL1        0.2105
     40 H          22.4626   73.2294    2.8562 H       1  UNL1        0.2105
     41 C          22.5675   75.7446    0.0625 C.3     1  UNL1        0.1693
     42 O          22.4677   76.4848   -1.1554 O.3     1  UNL1       -0.3794
     43 H          22.6434   77.4101   -0.9357 H       1  UNL1        0.2105
@<TRIPOS>BOND
     1    15    16   ar
     2    15    20   ar
     3    15     6    1
     4    16    17   ar
     5    16    21    2
     6    17    18   ar
     7    17    23    1
     8    18    19   ar
     9    18    22    2
    10    19    20   ar
    11     6     7    1
    12     6    11    1
    13     7     8    1
    14     7     9    1
    15     8    13    1
    16     9    10    1
    17     9    12    1
    18    10    11    1
    19    10     5    1
    20    12    14    1
    21     5     4    1
    22     4     1    1
    23     1     2    2
    24     1     3    1
    25     1    24    1
    26    24    25    1
    27    25    26    2
    28    25    27    1
    29    25    28    1
    30    28    29    1
    31    29    30    1
    32    29    37    1
    33    30    31    1
    34    30    34    1
    35    31    32    1
    36    31    35    1
    37    32    33    1
    38    32    36    1
    39    33    41    1
    40    33    37    1
    41    41    42    1
    42    34    38    1
    43    35    39    1
    44    36    40    1
    45    42    43    1
@<TRIPOS>MOLECULE
GDU
 43 45 0 0 0
SMALL
GASTEIGER

@<TRIPOS>ATOM
      1 P          21.5062   71.4268   -0.6163 P.3     1  UNL1        0.2189
      2 O          20.2824   72.2465   -0.4746 O.2     1  UNL1       -0.5170
      3 O          21.2266   69.9437   -0.0548 O.3     1  UNL1       -0.4371
      4 O          21.9203   71.3437   -2.1682 O.3     1  UNL1       -0.3112
      5 C          21.1780   70.2641   -2.7374 C.3     1  UNL1        0.1811
      6 C          18.5679   70.8486   -5.1401 C.3     1  UNL1        0.2383
      7 C          18.2139   69.4789   -4.5065 C.3     1  UNL1        0.1895
      8 O          16.7992   69.2749   -4.4903 O.3     1  UNL1       -0.3779
      9 C          18.7669   69.6346   -3.0660 C.3     1  UNL1        0.1713
     10 C          19.8039   70.7670   -3.1836 C.3     1  UNL1        0.1764
     11 O          19.8538   71.1636   -4.5650 O.3     1  UNL1       -0.3308
     12 O          17.7189   69.9984   -2.1652 O.3     1  UNL1       -0.3794
     13 H          16.6469   68.4093   -4.0861 H       1  UNL1        0.2106
     14 H          17.0740   69.2782   -2.1803 H       1  UNL1        0.2105
     15 N          18.6678   70.7355   -6.5962 N.ar    1  UNL1       -0.2551
     16 C          17.5492   70.7237   -7.3424 C.ar    1  UNL1        0.3323
     17 N          17.6135   70.6242   -8.6833 N.ar    1  UNL1       -0.2743
     18 C          18.8061   70.5243   -9.3013 C.ar    1  UNL1        0.2626
     19 C          19.9925   70.5296   -8.5276 C.ar    1  UNL1        0.0795
     20 C          19.8996   70.6348   -7.1849 C.ar    1  UNL1        0.0869
     21 O          16.4663   70.8135   -6.7991 O.2     1  UNL1       -0.2464
     22 O          18.8651   70.4294  -10.5146 O.2     1  UNL1       -0.2670
     23 H          16.7962   70.6216   -9.2065 H       1  UNL1        0.1734
     24 O          22.7026   72.1007    0.2244 O.3     1  UNL1       -0.2703
     25 P          22.0278   72.8464    1.4807 P.3     1  UNL1        0.2208
     26 O          21.2846   74.0350    1.0075 O.2     1  UNL1       -0.5170
     27 O          21.0122   71.8387    2.2205 O.3     1  UNL1       -0.4371
     28 O          23.1740   73.3049    2.5132 O.3     1  UNL1       -0.2858
     29 C          22.9604   74.6912    2.7816 C.3     1  UNL1        0.2704
     30 C          24.2886   75.3466    3.1633 C.3     1  UNL1        0.1967
     31 C          24.8577   74.6383    4.3966 C.3     1  UNL1        0.1715
     32 C          23.7908   74.6374    5.4971 C.3     1  UNL1        0.1694
     33 C          22.5000   74.0336    4.9385 C.3     1  UNL1        0.1761
     34 O          25.2087   75.2318    2.0764 O.3     1  UNL1       -0.3775
     35 O          26.0216   75.3306    4.8534 O.3     1  UNL1       -0.3794
     36 O          23.5492   75.9771    5.9295 O.3     1  UNL1       -0.3794
     37 O          22.0279   74.8282    3.8514 O.3     1  UNL1       -0.3258
     38 H          24.8072   75.6841    1.3220 H       1  UNL1        0.2106
     39 H          26.6584   75.3167    4.1277 H       1  UNL1        0.2105
     40 H          24.3879   76.3178    6.2669 H       1  UNL1        0.2105
     41 C          21.4380   73.9964    6.0397 C.3     1  UNL1        0.1693
     42 O          22.0775   73.9981    7.3172 O.3     1  UNL1       -0.3794
     43 H          21.3752   73.9750    7.9818 H       1  UNL1        0.2105
@<TRIPOS>BOND
     1    15    16   ar
     2    15    20   ar
     3    15     6    1
     4    16    17   ar
     5    16    21    2
     6    17    18   ar
     7    17    23    1
     8    18    19   ar
     9    18    22    2
    10    19    20   ar
    11     6     7    1
    12     6    11    1
    13     7     8    1
    14     7     9    1
    15     8    13    1
    16     9    10    1
    17     9    12    1
    18    10    11    1
    19    10     5    1
    20    12    14    1
    21     5     4    1
    22     4     1    1
    23     1     2    2
    24     1     3    1
    25     1    24    1
    26    24    25    1
    27    25    26    2
    28    25    27    1
    29    25    28    1
    30    28    29    1
    31    29    30    1
    32    29    37    1
    33    30    31    1
    34    30    34    1
    35    31    32    1
    36    31    35    1
    37    32    33    1
    38    32    36    1
    39    33    41    1
    40    33    37    1
    41    41    42    1
    42    34    38    1
    43    35    39    1
    44    36    40    1
    45    42    43    1
@<TRIPOS>MOLECULE
GDU
 43 45 0 0 0
SMALL
GASTEIGER

@<TRIPOS>ATOM
      1 P          22.7492   71.7054   -2.9452 P.3     1  UNL1        0.2189
      2 O          23.6130   72.8979   -3.0909 O.2     1  UNL1       -0.5170
      3 O          23.6087   70.3793   -3.2545 O.3     1  UNL1       -0.4371
      4 O          22.1779   71.6364   -1.4433 O.3     1  UNL1       -0.3112
      5 C          22.5631   72.8511   -0.7978 C.3     1  UNL1        0.1811
      6 C          20.7682   74.2131    2.0041 C.3     1  UNL1        0.2383
      7 C          21.4135   75.4450    1.3194 C.3     1  UNL1        0.1895
      8 O          20.6030   76.6092    1.4956 O.3     1  UNL1       -0.3779
      9 C          21.4422   75.0113   -0.1694 C.3     1  UNL1        0.1713
     10 C          21.3455   73.4753   -0.1136 C.3     1  UNL1        0.1764
     11 O          21.3165   73.0957    1.2732 O.3     1  UNL1       -0.3308
     12 O          20.3277   75.5642   -0.8724 O.3     1  UNL1       -0.3794
     13 H          21.0584   77.3363    1.0486 H       1  UNL1        0.2106
     14 H          20.4135   76.5258   -0.8214 H       1  UNL1        0.2105
     15 N          21.1520   74.1447    3.4151 N.ar    1  UNL1       -0.2551
     16 C          20.2427   73.7809    4.3366 C.ar    1  UNL1        0.3323
     17 N          20.5707   73.7066    5.6400 N.ar    1  UNL1       -0.2743
     18 C          21.8196   74.0069    6.0451 C.ar    1  UNL1        0.2626
     19 C          22.7864   74.3973    5.0863 C.ar    1  UNL1        0.0795
     20 C          22.4319   74.4594    3.7851 C.ar    1  UNL1        0.0869
     21 O          19.1122   73.5065    3.9862 O.2     1  UNL1       -0.2464
     22 O          22.1161   73.9446    7.2252 O.2     1  UNL1       -0.2670
     23 H          19.9029   73.4381    6.2909 H       1  UNL1        0.1734
     24 O          21.5224   71.8024   -3.9834 O.3     1  UNL1       -0.2703
     25 P          20.4435   70.6954   -3.5357 P.3     1  UNL1        0.2208
     26 O          21.1480   69.4905   -3.0448 O.2     1  UNL1       -0.5170
     27 O          19.5190   71.2923   -2.3595 O.3     1  UNL1       -0.4371
     28 O          19.5211   70.3034   -4.7948 O.3     1  UNL1       -0.2858
     29 C          18.6067   71.3827   -4.9915 C.3     1  UNL1        0.2704
     30 C          17.2076   70.8233   -5.2539 C.3     1  UNL1        0.1967
     31 C          17.2550   69.9223   -6.4918 C.3     1  UNL1        0.1715
     32 C          17.8687   70.7147   -7.6515 C.3     1  UNL1        0.1694
     33 C          19.2197   71.2811   -7.2074 C.3     1  UNL1        0.1761
     34 O          16.7760   70.0637   -4.1234 O.3     1  UNL1       -0.3775
     35 O          15.9307   69.5100   -6.8365 O.3     1  UNL1       -0.3794
     36 O          16.9938   71.7832   -8.0160 O.3     1  UNL1       -0.3794
     37 O          19.0313   72.1663   -6.1042 O.3     1  UNL1       -0.3258
     38 H          16.7681   70.6674   -3.3682 H       1  UNL1        0.2106
     39 H          15.5810   69.0278   -6.0767 H       1  UNL1        0.2105
     40 H          16.1567   71.3811   -8.2821 H       1  UNL1        0.2105
     41 C          19.8571   72.0458   -8.3697 C.3     1  UNL1        0.1693
     42 O          21.1950   71.5846   -8.5655 O.3     1  UNL1       -0.3794
     43 H          21.5597   72.0898   -9.3051 H       1  UNL1        0.2105
@<TRIPOS>BOND
     1    15    16   ar
     2    15    20   ar
     3    15     6    1
     4    16    17   ar
     5    16    21    2
     6    17    18   ar
     7    17    23    1
     8    18    19   ar
     9    18    22    2
    10    19    20   ar
    11     6     7    1
    12     6    11    1
    13     7     8    1
    14     7     9    1
    15     8    13    1
    16     9    10    1
    17     9    12    1
    18    10    11    1
    19    10     5    1
    20    12    14    1
    21     5     4    1
    22     4     1    1
    23     1     2    2
    24     1     3    1
    25     1    24    1
    26    24    25    1
    27    25    26    2
    28    25    27    1
    29    25    28    1
    30    28    29    1
    31    29    30    1
    32    29    37    1
    33    30    31    1
    34    30    34    1
    35    31    32    1
    36    31    35    1
    37    32    33    1
    38    32    36    1
    39    33    41    1
    40    33    37    1
    41    41    42    1
    42    34    38    1
    43    35    39    1
    44    36    40    1
    45    42    43    1
@<TRIPOS>MOLECULE
GDU
 43 45 0 0 0
SMALL
GASTEIGER

@<TRIPOS>ATOM
      1 P          19.7994   70.3728   -3.8587 P.3     1  UNL1        0.2189
      2 O          18.6979   70.7842   -2.9604 O.2     1  UNL1       -0.5170
      3 O          20.2909   68.8917   -3.4614 O.3     1  UNL1       -0.4371
      4 O          19.2803   70.3756   -5.3810 O.3     1  UNL1       -0.3112
      5 C          17.9195   70.8091   -5.3534 C.3     1  UNL1        0.1811
      6 C          19.0002   73.1636   -7.8465 C.3     1  UNL1        0.2383
      7 C          18.7346   71.8560   -8.6355 C.3     1  UNL1        0.1895
      8 O          18.3050   72.1429   -9.9683 O.3     1  UNL1       -0.3779
      9 C          17.5907   71.2072   -7.8133 C.3     1  UNL1        0.1713
     10 C          17.6998   71.8740   -6.4295 C.3     1  UNL1        0.1764
     11 O          18.8258   72.7676   -6.4695 O.3     1  UNL1       -0.3308
     12 O          16.3240   71.4870   -8.4125 O.3     1  UNL1       -0.3794
     13 H          18.1579   71.2914  -10.4032 H       1  UNL1        0.2106
     14 H          16.3396   71.0954   -9.2963 H       1  UNL1        0.2105
     15 N          20.3651   73.6397   -8.0774 N.ar    1  UNL1       -0.2551
     16 C          21.4003   72.7944   -7.9285 C.ar    1  UNL1        0.3323
     17 N          22.6647   73.2059   -8.1382 N.ar    1  UNL1       -0.2743
     18 C          22.9148   74.4809   -8.4930 C.ar    1  UNL1        0.2626
     19 C          21.8346   75.3840   -8.6480 C.ar    1  UNL1        0.0795
     20 C          20.5761   74.9440   -8.4356 C.ar    1  UNL1        0.0869
     21 O          21.1902   71.6412   -7.6093 O.2     1  UNL1       -0.2464
     22 O          24.0593   74.8555   -8.6783 O.2     1  UNL1       -0.2670
     23 H          23.3994   72.5812   -8.0303 H       1  UNL1        0.1734
     24 O          21.0274   71.4030   -3.7071 O.3     1  UNL1       -0.2703
     25 P          21.9514   70.8546   -2.5090 P.3     1  UNL1        0.2208
     26 O          21.3507   69.6251   -1.9462 O.2     1  UNL1       -0.5170
     27 O          23.4222   70.5222   -3.0749 O.3     1  UNL1       -0.4371
     28 O          22.0609   71.9747   -1.3585 O.3     1  UNL1       -0.2858
     29 C          20.8245   71.9578   -0.6439 C.3     1  UNL1        0.2704
     30 C          20.1564   73.3295   -0.7499 C.3     1  UNL1        0.1967
     31 C          21.0999   74.3896   -0.1733 C.3     1  UNL1        0.1715
     32 C          21.5028   73.9680    1.2443 C.3     1  UNL1        0.1694
     33 C          22.0711   72.5475    1.1986 C.3     1  UNL1        0.1761
     34 O          19.8836   73.6244   -2.1209 O.3     1  UNL1       -0.3775
     35 O          20.4334   75.6530   -0.1299 O.3     1  UNL1       -0.3794
     36 O          20.3573   74.0024    2.0967 O.3     1  UNL1       -0.3794
     37 O          21.0729   71.6447    0.7247 O.3     1  UNL1       -0.3258
     38 H          19.2937   72.9295   -2.4437 H       1  UNL1        0.2106
     39 H          20.1888   75.8717   -1.0380 H       1  UNL1        0.2105
     40 H          20.0308   74.9116    2.0904 H       1  UNL1        0.2105
     41 C          22.5083   72.1295    2.6044 C.3     1  UNL1        0.1693
     42 O          21.3581   71.7770    3.3750 O.3     1  UNL1       -0.3794
     43 H          21.6764   71.5197    4.2512 H       1  UNL1        0.2105
@<TRIPOS>BOND
     1    15    16   ar
     2    15    20   ar
     3    15     6    1
     4    16    17   ar
     5    16    21    2
     6    17    18   ar
     7    17    23    1
     8    18    19   ar
     9    18    22    2
    10    19    20   ar
    11     6     7    1
    12     6    11    1
    13     7     8    1
    14     7     9    1
    15     8    13    1
    16     9    10    1
    17     9    12    1
    18    10    11    1
    19    10     5    1
    20    12    14    1
    21     5     4    1
    22     4     1    1
    23     1     2    2
    24     1     3    1
    25     1    24    1
    26    24    25    1
    27    25    26    2
    28    25    27    1
    29    25    28    1
    30    28    29    1
    31    29    30    1
    32    29    37    1
    33    30    31    1
    34    30    34    1
    35    31    32    1
    36    31    35    1
    37    32    33    1
    38    32    36    1
    39    33    41    1
    40    33    37    1
    41    41    42    1
    42    34    38    1
    43    35    39    1
    44    36    40    1
    45    42    43    1
@<TRIPOS>MOLECULE
GDU
 43 45 0 0 0
SMALL
GASTEIGER

@<TRIPOS>ATOM
      1 P          18.2291   70.0657   -3.4248 P.3     1  UNL1        0.2189
      2 O          18.6219   69.1787   -2.3075 O.2     1  UNL1       -0.5170
      3 O          17.0133   71.0120   -2.9566 O.3     1  UNL1       -0.4371
      4 O          19.4833   70.9764   -3.8541 O.3     1  UNL1       -0.3112
      5 C          19.6391   71.9705   -2.8402 C.3     1  UNL1        0.1811
      6 C          22.4666   72.3672   -0.6549 C.3     1  UNL1        0.2383
      7 C          22.3862   70.8410   -0.9141 C.3     1  UNL1        0.1895
      8 O          23.6858   70.2473   -0.8705 O.3     1  UNL1       -0.3779
      9 C          21.8007   70.7856   -2.3492 C.3     1  UNL1        0.1713
     10 C          21.1256   72.1577   -2.5312 C.3     1  UNL1        0.1764
     11 O          21.2808   72.8810   -1.2980 O.3     1  UNL1       -0.3308
     12 O          22.8445   70.6030   -3.3079 O.3     1  UNL1       -0.3794
     13 H          23.5663   69.3021   -1.0382 H       1  UNL1        0.2106
     14 H          23.2659   69.7567   -3.1054 H       1  UNL1        0.2105
     15 N          22.4387   72.6509    0.7809 N.ar    1  UNL1       -0.2551
     16 C          21.9137   71.7489    1.6288 C.ar    1  UNL1        0.3323
     17 N          21.8791   71.9837    2.9538 N.ar    1  UNL1       -0.2743
     18 C          22.3639   73.1370    3.4529 C.ar    1  UNL1        0.2626
     19 C          22.9147   74.0988    2.5711 C.ar    1  UNL1        0.0795
     20 C          22.9408   73.8361    1.2471 C.ar    1  UNL1        0.0869
     21 O          21.4730   70.7038    1.1934 O.2     1  UNL1       -0.2464
     22 O          22.3286   73.3524    4.6516 O.2     1  UNL1       -0.2670
     23 H          21.5004   71.3196    3.5516 H       1  UNL1        0.1734
     24 O          17.7592   69.1717   -4.6788 O.3     1  UNL1       -0.2703
     25 P          17.1361   70.1824   -5.7651 P.3     1  UNL1        0.2208
     26 O          16.1818   69.4518   -6.6280 O.2     1  UNL1       -0.5170
     27 O          16.3669   71.3772   -5.0069 O.3     1  UNL1       -0.4371
     28 O          18.3180   70.7954   -6.6693 O.3     1  UNL1       -0.2858
     29 C          17.9767   70.5338   -8.0312 C.3     1  UNL1        0.2704
     30 C          19.2302   70.6452   -8.9006 C.3     1  UNL1        0.1967
     31 C          19.8174   72.0520   -8.7508 C.3     1  UNL1        0.1715
     32 C          18.7188   73.0766   -9.0557 C.3     1  UNL1        0.1694
     33 C          17.5040   72.7817   -8.1724 C.3     1  UNL1        0.1761
     34 O          20.1921   69.6761   -8.4800 O.3     1  UNL1       -0.3775
     35 O          20.9015   72.2198   -9.6668 O.3     1  UNL1       -0.3794
     36 O          18.3485   72.9847  -10.4321 O.3     1  UNL1       -0.3794
     37 O          17.0012   71.4788   -8.4649 O.3     1  UNL1       -0.3258
     38 H          19.7781   68.8086   -8.5844 H       1  UNL1        0.2106
     39 H          21.5606   71.5497   -9.4461 H       1  UNL1        0.2105
     40 H          19.1431   73.1716  -10.9488 H       1  UNL1        0.2105
     41 C          16.4135   73.8203   -8.4446 C.3     1  UNL1        0.1693
     42 O          15.1734   73.3603   -7.9046 O.3     1  UNL1       -0.3794
     43 H          14.5147   74.0420   -8.0962 H       1  UNL1        0.2105
@<TRIPOS>BOND
     1    15    16   ar
     2    15    20   ar
     3    15     6    1
     4    16    17   ar
     5    16    21    2
     6    17    18   ar
     7    17    23    1
     8    18    19   ar
     9    18    22    2
    10    19    20   ar
    11     6     7    1
    12     6    11    1
    13     7     8    1
    14     7     9    1
    15     8    13    1
    16     9    10    1
    17     9    12    1
    18    10    11    1
    19    10     5    1
    20    12    14    1
    21     5     4    1
    22     4     1    1
    23     1     2    2
    24     1     3    1
    25     1    24    1
    26    24    25    1
    27    25    26    2
    28    25    27    1
    29    25    28    1
    30    28    29    1
    31    29    30    1
    32    29    37    1
    33    30    31    1
    34    30    34    1
    35    31    32    1
    36    31    35    1
    37    32    33    1
    38    32    36    1
    39    33    41    1
    40    33    37    1
    41    41    42    1
    42    34    38    1
    43    35    39    1
    44    36    40    1
    45    42    43    1
@<TRIPOS>MOLECULE
GDU
 43 45 0 0 0
SMALL
GASTEIGER

@<TRIPOS>ATOM
      1 P          22.7806   72.0708   -3.4772 P.3     1  UNL1        0.2189
      2 O          23.7781   72.9271   -4.1564 O.2     1  UNL1       -0.5170
      3 O          23.4231   70.6222   -3.1911 O.3     1  UNL1       -0.4371
      4 O          22.3485   72.7505   -2.0850 O.3     1  UNL1       -0.3112
      5 C          21.6248   71.7628   -1.3494 C.3     1  UNL1        0.1811
      6 C          21.4559   73.6108    1.7302 C.3     1  UNL1        0.2383
      7 C          21.3266   74.6876    0.6226 C.3     1  UNL1        0.1895
      8 O          20.5249   75.7839    1.0684 O.3     1  UNL1       -0.3779
      9 C          20.6124   73.9048   -0.5098 C.3     1  UNL1        0.1713
     10 C          20.8961   72.4275   -0.1800 C.3     1  UNL1        0.1764
     11 O          21.7279   72.4001    0.9928 O.3     1  UNL1       -0.3308
     12 O          19.2080   74.1679   -0.4903 O.3     1  UNL1       -0.3794
     13 H          20.4844   76.4154    0.3367 H       1  UNL1        0.2106
     14 H          19.0986   75.1161   -0.6437 H       1  UNL1        0.2105
     15 N          22.5653   73.9258    2.6318 N.ar    1  UNL1       -0.2551
     16 C          22.5206   73.5173    3.9122 C.ar    1  UNL1        0.3323
     17 N          23.5289   73.7908    4.7609 N.ar    1  UNL1       -0.2743
     18 C          24.6004   74.4906    4.3408 C.ar    1  UNL1        0.2626
     19 C          24.6585   74.9323    2.9963 C.ar    1  UNL1        0.0795
     20 C          23.6355   74.6407    2.1652 C.ar    1  UNL1        0.0869
     21 O          21.5608   72.8847    4.3055 O.2     1  UNL1       -0.2464
     22 O          25.5114   74.7427    5.1096 O.2     1  UNL1       -0.2670
     23 H          23.4819   73.4844    5.6805 H       1  UNL1        0.1734
     24 O          21.4859   71.9054   -4.4199 O.3     1  UNL1       -0.2703
     25 P          21.5558   73.0791   -5.5188 P.3     1  UNL1        0.2208
     26 O          21.7317   74.3814   -4.8389 O.2     1  UNL1       -0.5170
     27 O          22.8018   72.8168   -6.5052 O.3     1  UNL1       -0.4371
     28 O          20.1918   73.0983   -6.3727 O.3     1  UNL1       -0.2858
     29 C          19.8558   71.7378   -6.6485 C.3     1  UNL1        0.2704
     30 C          19.8318   71.5161   -8.1617 C.3     1  UNL1        0.1967
     31 C          18.8051   72.4645   -8.7884 C.3     1  UNL1        0.1715
     32 C          17.4604   72.2690   -8.0791 C.3     1  UNL1        0.1694
     33 C          17.6641   72.4358   -6.5712 C.3     1  UNL1        0.1761
     34 O          21.1260   71.7825   -8.7050 O.3     1  UNL1       -0.3775
     35 O          18.6645   72.1685  -10.1794 O.3     1  UNL1       -0.3794
     36 O          16.9596   70.9605   -8.3566 O.3     1  UNL1       -0.3794
     37 O          18.5745   71.4452   -6.0960 O.3     1  UNL1       -0.3258
     38 H          21.7395   71.1692   -8.2780 H       1  UNL1        0.2106
     39 H          19.5336   72.2927  -10.5813 H       1  UNL1        0.2105
     40 H          16.8526   70.8992   -9.3148 H       1  UNL1        0.2105
     41 C          16.3206   72.2764   -5.8560 C.3     1  UNL1        0.1693
     42 O          16.4196   71.2331   -4.8851 O.3     1  UNL1       -0.3794
     43 H          15.5547   71.1655   -4.4577 H       1  UNL1        0.2105
@<TRIPOS>BOND
     1    15    16   ar
     2    15    20   ar
     3    15     6    1
     4    16    17   ar
     5    16    21    2
     6    17    18   ar
     7    17    23    1
     8    18    19   ar
     9    18    22    2
    10    19    20   ar
    11     6     7    1
    12     6    11    1
    13     7     8    1
    14     7     9    1
    15     8    13    1
    16     9    10    1
    17     9    12    1
    18    10    11    1
    19    10     5    1
    20    12    14    1
    21     5     4    1
    22     4     1    1
    23     1     2    2
    24     1     3    1
    25     1    24    1
    26    24    25    1
    27    25    26    2
    28    25    27    1
    29    25    28    1
    30    28    29    1
    31    29    30    1
    32    29    37    1
    33    30    31    1
    34    30    34    1
    35    31    32    1
    36    31    35    1
    37    32    33    1
    38    32    36    1
    39    33    41    1
    40    33    37    1
    41    41    42    1
    42    34    38    1
    43    35    39    1
    44    36    40    1
    45    42    43    1
@<TRIPOS>MOLECULE
GDU
 43 45 0 0 0
SMALL
GASTEIGER

@<TRIPOS>ATOM
      1 P          19.4408   71.2016   -4.0020 P.3     1  UNL1        0.2189
      2 O          18.6355   72.4430   -4.0136 O.2     1  UNL1       -0.5170
      3 O          19.1429   70.3815   -2.6486 O.3     1  UNL1       -0.4371
      4 O          19.0520   70.2974   -5.2740 O.3     1  UNL1       -0.3112
      5 C          17.6422   70.0766   -5.2094 C.3     1  UNL1        0.1811
      6 C          16.2056   72.4919   -7.4522 C.3     1  UNL1        0.2383
      7 C          17.7056   72.4444   -7.8404 C.3     1  UNL1        0.1895
      8 O          17.8812   72.7198   -9.2319 O.3     1  UNL1       -0.3779
      9 C          18.0787   70.9743   -7.5162 C.3     1  UNL1        0.1713
     10 C          16.9935   70.5236   -6.5207 C.3     1  UNL1        0.1764
     11 O          16.1339   71.6513   -6.2809 O.3     1  UNL1       -0.3308
     12 O          18.0423   70.1767   -8.7012 O.3     1  UNL1       -0.3794
     13 H          18.8315   72.6753   -9.4073 H       1  UNL1        0.2106
     14 H          18.7007   70.5440   -9.3064 H       1  UNL1        0.2105
     15 N          15.7968   73.8603   -7.1308 N.ar    1  UNL1       -0.2551
     16 C          14.8950   74.4865   -7.9072 C.ar    1  UNL1        0.3323
     17 N          14.4995   75.7433   -7.6317 N.ar    1  UNL1       -0.2743
     18 C          15.0115   76.4007   -6.5734 C.ar    1  UNL1        0.2626
     19 C          15.9666   75.7556   -5.7501 C.ar    1  UNL1        0.0795
     20 C          16.3425   74.4934   -6.0466 C.ar    1  UNL1        0.0869
     21 O          14.4240   73.9061   -8.8650 O.2     1  UNL1       -0.2464
     22 O          14.6577   77.5401   -6.3260 O.2     1  UNL1       -0.2670
     23 H          13.8445   76.1785   -8.2003 H       1  UNL1        0.1734
     24 O          21.0051   71.5772   -4.0669 O.3     1  UNL1       -0.2703
     25 P          21.7291   70.7677   -2.8793 P.3     1  UNL1        0.2208
     26 O          21.2243   69.3771   -2.8514 O.2     1  UNL1       -0.5170
     27 O          23.3200   70.7556   -3.1305 O.3     1  UNL1       -0.4371
     28 O          21.4147   71.4821   -1.4719 O.3     1  UNL1       -0.2858
     29 C          22.6203   71.4412   -0.7074 C.3     1  UNL1        0.2704
     30 C          22.3014   71.0047    0.7234 C.3     1  UNL1        0.1967
     31 C          21.3055   71.9942    1.3363 C.3     1  UNL1        0.1715
     32 C          21.8743   73.4109    1.1980 C.3     1  UNL1        0.1694
     33 C          22.2240   73.6657   -0.2703 C.3     1  UNL1        0.1761
     34 O          21.7296   69.6955    0.7081 O.3     1  UNL1       -0.3775
     35 O          21.1104   71.6853    2.7179 O.3     1  UNL1       -0.3794
     36 O          23.0480   73.5352    2.0023 O.3     1  UNL1       -0.3794
     37 O          23.2183   72.7354   -0.6967 O.3     1  UNL1       -0.3258
     38 H          22.3863   69.1089    0.3088 H       1  UNL1        0.2106
     39 H          20.7645   70.7847    2.7572 H       1  UNL1        0.2105
     40 H          22.7819   73.3613    2.9146 H       1  UNL1        0.2105
     41 C          22.7611   75.0904   -0.4250 C.3     1  UNL1        0.1693
     42 O          21.6959   76.0233   -0.2353 O.3     1  UNL1       -0.3794
     43 H          22.0755   76.9066   -0.3400 H       1  UNL1        0.2105
@<TRIPOS>BOND
     1    15    16   ar
     2    15    20   ar
     3    15     6    1
     4    16    17   ar
     5    16    21    2
     6    17    18   ar
     7    17    23    1
     8    18    19   ar
     9    18    22    2
    10    19    20   ar
    11     6     7    1
    12     6    11    1
    13     7     8    1
    14     7     9    1
    15     8    13    1
    16     9    10    1
    17     9    12    1
    18    10    11    1
    19    10     5    1
    20    12    14    1
    21     5     4    1
    22     4     1    1
    23     1     2    2
    24     1     3    1
    25     1    24    1
    26    24    25    1
    27    25    26    2
    28    25    27    1
    29    25    28    1
    30    28    29    1
    31    29    30    1
    32    29    37    1
    33    30    31    1
    34    30    34    1
    35    31    32    1
    36    31    35    1
    37    32    33    1
    38    32    36    1
    39    33    41    1
    40    33    37    1
    41    41    42    1
    42    34    38    1
    43    35    39    1
    44    36    40    1
    45    42    43    1
@<TRIPOS>MOLECULE
GDU
 43 45 0 0 0
SMALL
GASTEIGER

@<TRIPOS>ATOM
      1 P          22.8426   73.4659   -4.5935 P.3     1  UNL1        0.2189
      2 O          24.1114   73.0757   -3.9396 O.2     1  UNL1       -0.5170
      3 O          22.9052   75.0227   -5.0002 O.3     1  UNL1       -0.4371
      4 O          22.6229   72.5747   -5.9142 O.3     1  UNL1       -0.3112
      5 C          22.0812   73.4409   -6.9126 C.3     1  UNL1        0.1811
      6 C          18.6627   72.4337   -6.4360 C.3     1  UNL1        0.2383
      7 C          18.5744   73.9225   -6.8585 C.3     1  UNL1        0.1895
      8 O          17.3652   74.1779   -7.5767 O.3     1  UNL1       -0.3779
      9 C          19.8096   74.0713   -7.7845 C.3     1  UNL1        0.1713
     10 C          20.7262   72.9031   -7.3762 C.3     1  UNL1        0.1764
     11 O          20.0813   72.2069   -6.2956 O.3     1  UNL1       -0.3308
     12 O          19.4229   73.9570   -9.1554 O.3     1  UNL1       -0.3794
     13 H          17.3719   75.1169   -7.8092 H       1  UNL1        0.2106
     14 H          18.8054   74.6793   -9.3334 H       1  UNL1        0.2105
     15 N          17.9770   72.2156   -5.1612 N.ar    1  UNL1       -0.2551
     16 C          17.2726   71.0866   -4.9676 C.ar    1  UNL1        0.3323
     17 N          16.6357   70.8599   -3.8036 N.ar    1  UNL1       -0.2743
     18 C          16.6862   71.7704   -2.8123 C.ar    1  UNL1        0.2626
     19 C          17.4196   72.9669   -3.0043 C.ar    1  UNL1        0.0795
     20 C          18.0524   73.1670   -4.1798 C.ar    1  UNL1        0.0869
     21 O          17.2184   70.2558   -5.8524 O.2     1  UNL1       -0.2464
     22 O          16.1061   71.5683   -1.7601 O.2     1  UNL1       -0.2670
     23 H          16.1356   70.0376   -3.6795 H       1  UNL1        0.1734
     24 O          21.6193   73.2277   -3.5742 O.3     1  UNL1       -0.2703
     25 P          21.7684   71.7285   -3.0085 P.3     1  UNL1        0.2208
     26 O          20.8723   70.8252   -3.7635 O.2     1  UNL1       -0.5170
     27 O          23.2930   71.2389   -3.1817 O.3     1  UNL1       -0.4371
     28 O          21.3709   71.7001   -1.4492 O.3     1  UNL1       -0.2858
     29 C          22.5901   71.6021   -0.7119 C.3     1  UNL1        0.2704
     30 C          22.2948   71.0720    0.6921 C.3     1  UNL1        0.1967
     31 C          21.3165   72.0230    1.3885 C.3     1  UNL1        0.1715
     32 C          21.8913   73.4430    1.3349 C.3     1  UNL1        0.1694
     33 C          22.2156   73.7941   -0.1193 C.3     1  UNL1        0.1761
     34 O          21.7148   69.7696    0.5999 O.3     1  UNL1       -0.3775
     35 O          21.1449   71.6230    2.7498 O.3     1  UNL1       -0.3794
     36 O          23.0804   73.5072    2.1235 O.3     1  UNL1       -0.3794
     37 O          23.1961   72.8897   -0.6257 O.3     1  UNL1       -0.3258
     38 H          22.3605   69.2080    0.1498 H       1  UNL1        0.2106
     39 H          20.7943   70.7235    2.7351 H       1  UNL1        0.2105
     40 H          22.8300   73.2738    3.0269 H       1  UNL1        0.2105
     41 C          22.7584   75.2233   -0.1882 C.3     1  UNL1        0.1693
     42 O          24.1795   75.1996   -0.0430 O.3     1  UNL1       -0.3794
     43 H          24.4812   76.1171   -0.0927 H       1  UNL1        0.2105
@<TRIPOS>BOND
     1    15    16   ar
     2    15    20   ar
     3    15     6    1
     4    16    17   ar
     5    16    21    2
     6    17    18   ar
     7    17    23    1
     8    18    19   ar
     9    18    22    2
    10    19    20   ar
    11     6     7    1
    12     6    11    1
    13     7     8    1
    14     7     9    1
    15     8    13    1
    16     9    10    1
    17     9    12    1
    18    10    11    1
    19    10     5    1
    20    12    14    1
    21     5     4    1
    22     4     1    1
    23     1     2    2
    24     1     3    1
    25     1    24    1
    26    24    25    1
    27    25    26    2
    28    25    27    1
    29    25    28    1
    30    28    29    1
    31    29    30    1
    32    29    37    1
    33    30    31    1
    34    30    34    1
    35    31    32    1
    36    31    35    1
    37    32    33    1
    38    32    36    1
    39    33    41    1
    40    33    37    1
    41    41    42    1
    42    34    38    1
    43    35    39    1
    44    36    40    1
    45    42    43    1
@<TRIPOS>MOLECULE
GDU
 43 45 0 0 0
SMALL
GASTEIGER

@<TRIPOS>ATOM
      1 P          22.7581   73.0731   -3.1679 P.3     1  UNL1        0.2189
      2 O          22.5045   74.5270   -3.0616 O.2     1  UNL1       -0.5170
      3 O          23.9867   72.8150   -4.1763 O.3     1  UNL1       -0.4371
      4 O          23.1224   72.4839   -1.7163 O.3     1  UNL1       -0.3112
      5 C          22.5864   73.3935   -0.7542 C.3     1  UNL1        0.1811
      6 C          22.4863   73.5366    2.8371 C.3     1  UNL1        0.2383
      7 C          21.1334   72.8952    2.4354 C.3     1  UNL1        0.1895
      8 O          20.6798   71.9885    3.4430 O.3     1  UNL1       -0.3779
      9 C          21.5071   72.1360    1.1357 C.3     1  UNL1        0.1713
     10 C          22.7939   72.8308    0.6531 C.3     1  UNL1        0.1764
     11 O          23.0752   73.9017    1.5708 O.3     1  UNL1       -0.3308
     12 O          21.7505   70.7560    1.4156 O.3     1  UNL1       -0.3794
     13 H          19.8381   71.6259    3.1334 H       1  UNL1        0.2106
     14 H          20.9272   70.3924    1.7688 H       1  UNL1        0.2105
     15 N          22.2708   74.7231    3.6669 N.ar    1  UNL1       -0.2551
     16 C          22.9318   74.8518    4.8309 C.ar    1  UNL1        0.3323
     17 N          22.7544   75.9345    5.6108 N.ar    1  UNL1       -0.2743
     18 C          21.8995   76.9070    5.2399 C.ar    1  UNL1        0.2626
     19 C          21.1920   76.7822    4.0192 C.ar    1  UNL1        0.0795
     20 C          21.3919   75.6881    3.2541 C.ar    1  UNL1        0.0869
     21 O          23.7066   73.9830    5.1784 O.2     1  UNL1       -0.2464
     22 O          21.7347   77.8851    5.9475 O.2     1  UNL1       -0.2670
     23 H          23.2430   76.0129    6.4456 H       1  UNL1        0.1734
     24 O          21.4402   72.3392   -3.7310 O.3     1  UNL1       -0.2703
     25 P          21.2507   72.8242   -5.2538 P.3     1  UNL1        0.2208
     26 O          20.7162   74.2037   -5.2690 O.2     1  UNL1       -0.5170
     27 O          22.6735   72.7922   -6.0079 O.3     1  UNL1       -0.4371
     28 O          20.2231   71.8412   -6.0073 O.3     1  UNL1       -0.2858
     29 C          19.0938   72.6305   -6.3833 C.3     1  UNL1        0.2704
     30 C          17.8155   71.9693   -5.8658 C.3     1  UNL1        0.1967
     31 C          17.7099   70.5591   -6.4546 C.3     1  UNL1        0.1715
     32 C          17.8228   70.6555   -7.9803 C.3     1  UNL1        0.1694
     33 C          19.1027   71.4152   -8.3377 C.3     1  UNL1        0.1761
     34 O          17.8601   71.8920   -4.4398 O.3     1  UNL1       -0.3775
     35 O          16.4510   69.9835   -6.0993 O.3     1  UNL1       -0.3794
     36 O          16.6882   71.3498   -8.5005 O.3     1  UNL1       -0.3794
     37 O          19.0426   72.7372   -7.8041 O.3     1  UNL1       -0.3258
     38 H          17.9335   72.7992   -4.1135 H       1  UNL1        0.2106
     39 H          16.4191   69.9537   -5.1348 H       1  UNL1        0.2105
     40 H          15.9077   70.8399   -8.2471 H       1  UNL1        0.2105
     41 C          19.2427   71.4872   -9.8599 C.3     1  UNL1        0.1693
     42 O          18.6592   70.3227  -10.4467 O.3     1  UNL1       -0.3794
     43 H          18.7675   70.4075  -11.4040 H       1  UNL1        0.2105
@<TRIPOS>BOND
     1    15    16   ar
     2    15    20   ar
     3    15     6    1
     4    16    17   ar
     5    16    21    2
     6    17    18   ar
     7    17    23    1
     8    18    19   ar
     9    18    22    2
    10    19    20   ar
    11     6     7    1
    12     6    11    1
    13     7     8    1
    14     7     9    1
    15     8    13    1
    16     9    10    1
    17     9    12    1
    18    10    11    1
    19    10     5    1
    20    12    14    1
    21     5     4    1
    22     4     1    1
    23     1     2    2
    24     1     3    1
    25     1    24    1
    26    24    25    1
    27    25    26    2
    28    25    27    1
    29    25    28    1
    30    28    29    1
    31    29    30    1
    32    29    37    1
    33    30    31    1
    34    30    34    1
    35    31    32    1
    36    31    35    1
    37    32    33    1
    38    32    36    1
    39    33    41    1
    40    33    37    1
    41    41    42    1
    42    34    38    1
    43    35    39    1
    44    36    40    1
    45    42    43    1
