@<TRIPOS>MOLECULE
GDU
 43 45 0 0 0
SMALL
GASTEIGER

@<TRIPOS>ATOM
      1 P          22.0651   71.3036   -2.8913 P.3     1  UNL1        0.2189
      2 O          21.6762   69.8819   -2.7610 O.2     1  UNL1       -0.5170
      3 O          23.5548   71.3992   -3.4952 O.3     1  UNL1       -0.4371
      4 O          21.0378   72.0534   -3.8759 O.3     1  UNL1       -0.3112
      5 C          19.9579   72.5231   -3.0673 C.3     1  UNL1        0.1811
      6 C          17.9201   71.3113   -5.7704 C.3     1  UNL1        0.2383
      7 C          18.0681   70.0960   -4.8196 C.3     1  UNL1        0.1895
      8 O          16.9118   69.2579   -4.8796 O.3     1  UNL1       -0.3779
      9 C          18.1836   70.7807   -3.4328 C.3     1  UNL1        0.1713
     10 C          18.6290   72.2179   -3.7609 C.3     1  UNL1        0.1764
     11 O          18.7915   72.3034   -5.1872 O.3     1  UNL1       -0.3308
     12 O          16.9182   70.7812   -2.7689 O.3     1  UNL1       -0.3794
     13 H          17.0671   68.5242   -4.2684 H       1  UNL1        0.2106
     14 H          16.6667   69.8559   -2.6449 H       1  UNL1        0.2105
     15 N          18.3621   70.9677   -7.1229 N.ar    1  UNL1       -0.2551
     16 C          17.4578   70.5939   -8.0452 C.ar    1  UNL1        0.3323
     17 N          17.8375   70.2762   -9.2969 N.ar    1  UNL1       -0.2743
     18 C          19.1381   70.3184   -9.6444 C.ar    1  UNL1        0.2626
     19 C          20.1025   70.7048   -8.6816 C.ar    1  UNL1        0.0795
     20 C          19.6940   71.0224   -7.4347 C.ar    1  UNL1        0.0869
     21 O          16.2809   70.5515   -7.7467 O.2     1  UNL1       -0.2464
     22 O          19.4833   70.0264  -10.7758 O.2     1  UNL1       -0.2670
     23 H          17.1708   70.0127   -9.9510 H       1  UNL1        0.1734
     24 O          22.0292   72.0038   -1.4418 O.3     1  UNL1       -0.2703
     25 P          21.7218   70.8430   -0.3704 P.3     1  UNL1        0.2208
     26 O          20.6284   69.9833   -0.8748 O.2     1  UNL1       -0.5170
     27 O          23.0456   69.9524   -0.1498 O.3     1  UNL1       -0.4371
     28 O          21.2829   71.5054    1.0291 O.3     1  UNL1       -0.2858
     29 C          22.2845   72.4663    1.3656 C.3     1  UNL1        0.2704
     30 C          22.7495   72.2346    2.8042 C.3     1  UNL1        0.1967
     31 C          21.5454   72.3569    3.7432 C.3     1  UNL1        0.1715
     32 C          20.8600   73.7040    3.4882 C.3     1  UNL1        0.1694
     33 C          20.5363   73.8235    1.9969 C.3     1  UNL1        0.1761
     34 O          23.3173   70.9286    2.9191 O.3     1  UNL1       -0.3775
     35 O          21.9866   72.2892    5.1009 O.3     1  UNL1       -0.3794
     36 O          21.7321   74.7654    3.8793 O.3     1  UNL1       -0.3794
     37 O          21.7434   73.7791    1.2373 O.3     1  UNL1       -0.3258
     38 H          24.0650   70.8946    2.3071 H       1  UNL1        0.2106
     39 H          22.4204   71.4338    5.2119 H       1  UNL1        0.2105
     40 H          21.9128   74.6467    4.8209 H       1  UNL1        0.2105
     41 C          19.8206   75.1509    1.7369 C.3     1  UNL1        0.1693
     42 O          19.1902   75.5948    2.9396 O.3     1  UNL1       -0.3794
     43 H          18.7524   76.4321    2.7336 H       1  UNL1        0.2105
@<TRIPOS>BOND
     1    15    16   ar
     2    15    20   ar
     3    15     6    1
     4    16    17   ar
     5    16    21    2
     6    17    18   ar
     7    17    23    1
     8    18    19   ar
     9    18    22    2
    10    19    20   ar
    11     6     7    1
    12     6    11    1
    13     7     8    1
    14     7     9    1
    15     8    13    1
    16     9    10    1
    17     9    12    1
    18    10    11    1
    19    10     5    1
    20    12    14    1
    21     5     4    1
    22     4     1    1
    23     1     2    2
    24     1     3    1
    25     1    24    1
    26    24    25    1
    27    25    26    2
    28    25    27    1
    29    25    28    1
    30    28    29    1
    31    29    30    1
    32    29    37    1
    33    30    31    1
    34    30    34    1
    35    31    32    1
    36    31    35    1
    37    32    33    1
    38    32    36    1
    39    33    41    1
    40    33    37    1
    41    41    42    1
    42    34    38    1
    43    35    39    1
    44    36    40    1
    45    42    43    1
@<TRIPOS>MOLECULE
GDU
 43 45 0 0 0
SMALL
GASTEIGER

@<TRIPOS>ATOM
      1 P          22.6377   71.5095   -2.1771 P.3     1  UNL1        0.2189
      2 O          23.2581   71.3113   -3.5058 O.2     1  UNL1       -0.5170
      3 O          22.9002   73.0192   -1.6822 O.3     1  UNL1       -0.4371
      4 O          21.0544   71.2458   -2.2790 O.3     1  UNL1       -0.3112
      5 C          20.4794   72.4067   -2.8809 C.3     1  UNL1        0.1811
      6 C          18.1473   71.2042   -5.3390 C.3     1  UNL1        0.2383
      7 C          18.4614   69.9653   -4.4618 C.3     1  UNL1        0.1895
      8 O          17.3372   69.0845   -4.4021 O.3     1  UNL1       -0.3779
      9 C          18.7344   70.6083   -3.0772 C.3     1  UNL1        0.1713
     10 C          19.0823   72.0720   -3.4063 C.3     1  UNL1        0.1764
     11 O          19.0526   72.2103   -4.8375 O.3     1  UNL1       -0.3308
     12 O          17.5681   70.5372   -2.2546 O.3     1  UNL1       -0.3794
     13 H          17.5971   68.3380   -3.8443 H       1  UNL1        0.2106
     14 H          17.3675   69.5992   -2.1336 H       1  UNL1        0.2105
     15 N          18.4193   70.9225   -6.7495 N.ar    1  UNL1       -0.2551
     16 C          17.4115   70.5632   -7.5641 C.ar    1  UNL1        0.3323
     17 N          17.6341   70.3022   -8.8658 N.ar    1  UNL1       -0.2743
     18 C          18.8788   70.3878   -9.3733 C.ar    1  UNL1        0.2626
     19 C          19.9510   70.7595   -8.5257 C.ar    1  UNL1        0.0795
     20 C          19.6992   71.0199   -7.2252 C.ar    1  UNL1        0.0869
     21 O          16.2833   70.4823   -7.1208 O.2     1  UNL1       -0.2464
     22 O          19.0820   70.1471  -10.5503 O.2     1  UNL1       -0.2670
     23 H          16.8942   70.0485   -9.4402 H       1  UNL1        0.1734
     24 O          23.2879   70.4801   -1.1235 O.3     1  UNL1       -0.2703
     25 P          22.4524   70.6229    0.2446 P.3     1  UNL1        0.2208
     26 O          21.0831   70.1002    0.0430 O.2     1  UNL1       -0.5170
     27 O          23.1815   69.7817    1.4086 O.3     1  UNL1       -0.4371
     28 O          22.3788   72.1732    0.6704 O.3     1  UNL1       -0.2858
     29 C          21.1584   72.3481    1.3912 C.3     1  UNL1        0.2704
     30 C          20.5405   73.6988    1.0263 C.3     1  UNL1        0.1967
     31 C          21.5358   74.8114    1.3699 C.3     1  UNL1        0.1715
     32 C          21.9529   74.6599    2.8371 C.3     1  UNL1        0.1694
     33 C          22.4658   73.2358    3.0643 C.3     1  UNL1        0.1761
     34 O          20.2495   73.7299   -0.3721 O.3     1  UNL1       -0.3775
     35 O          20.9187   76.0853    1.1727 O.3     1  UNL1       -0.3794
     36 O          20.8281   74.9082    3.6817 O.3     1  UNL1       -0.3794
     37 O          21.4242   72.2997    2.7911 O.3     1  UNL1       -0.3258
     38 H          19.6270   73.0102   -0.5435 H       1  UNL1        0.2106
     39 H          20.6629   76.1314    0.2428 H       1  UNL1        0.2105
     40 H          20.5363   75.8112    3.5008 H       1  UNL1        0.2105
     41 C          22.9172   73.0840    4.5187 C.3     1  UNL1        0.1693
     42 O          21.8120   72.6581    5.3175 O.3     1  UNL1       -0.3794
     43 H          22.1379   72.5740    6.2242 H       1  UNL1        0.2105
@<TRIPOS>BOND
     1    15    16   ar
     2    15    20   ar
     3    15     6    1
     4    16    17   ar
     5    16    21    2
     6    17    18   ar
     7    17    23    1
     8    18    19   ar
     9    18    22    2
    10    19    20   ar
    11     6     7    1
    12     6    11    1
    13     7     8    1
    14     7     9    1
    15     8    13    1
    16     9    10    1
    17     9    12    1
    18    10    11    1
    19    10     5    1
    20    12    14    1
    21     5     4    1
    22     4     1    1
    23     1     2    2
    24     1     3    1
    25     1    24    1
    26    24    25    1
    27    25    26    2
    28    25    27    1
    29    25    28    1
    30    28    29    1
    31    29    30    1
    32    29    37    1
    33    30    31    1
    34    30    34    1
    35    31    32    1
    36    31    35    1
    37    32    33    1
    38    32    36    1
    39    33    41    1
    40    33    37    1
    41    41    42    1
    42    34    38    1
    43    35    39    1
    44    36    40    1
    45    42    43    1
@<TRIPOS>MOLECULE
GDU
 43 45 0 0 0
SMALL
GASTEIGER

@<TRIPOS>ATOM
      1 P          22.2616   70.9008   -1.0116 P.3     1  UNL1        0.2189
      2 O          22.3793   69.7360   -0.1068 O.2     1  UNL1       -0.5170
      3 O          23.1824   70.6656   -2.3116 O.3     1  UNL1       -0.4371
      4 O          20.7284   71.0762   -1.4647 O.3     1  UNL1       -0.3112
      5 C          20.7468   71.5605   -2.8084 C.3     1  UNL1        0.1811
      6 C          18.2229   71.1305   -5.3328 C.3     1  UNL1        0.2383
      7 C          18.2062   69.8013   -4.5354 C.3     1  UNL1        0.1895
      8 O          16.8972   69.2270   -4.5289 O.3     1  UNL1       -0.3779
      9 C          18.6115   70.2701   -3.1138 C.3     1  UNL1        0.1713
     10 C          19.3178   71.6178   -3.3513 C.3     1  UNL1        0.1764
     11 O          19.3434   71.8463   -4.7710 O.3     1  UNL1       -0.3308
     12 O          17.4530   70.4422   -2.2952 O.3     1  UNL1       -0.3794
     13 H          16.9551   68.4067   -4.0195 H       1  UNL1        0.2106
     14 H          17.0233   69.5784   -2.2328 H       1  UNL1        0.2105
     15 N          18.4357   70.8765   -6.7587 N.ar    1  UNL1       -0.2551
     16 C          17.3774   70.7219   -7.5737 C.ar    1  UNL1        0.3323
     17 N          17.5455   70.4910   -8.8891 N.ar    1  UNL1       -0.2743
     18 C          18.7839   70.4009   -9.4108 C.ar    1  UNL1        0.2626
     19 C          19.9082   70.5559   -8.5633 C.ar    1  UNL1        0.0795
     20 C          19.7112   70.7909   -7.2486 C.ar    1  UNL1        0.0869
     21 O          16.2541   70.8011   -7.1176 O.2     1  UNL1       -0.2464
     22 O          18.9371   70.1871  -10.6005 O.2     1  UNL1       -0.2670
     23 H          16.7702   70.3862   -9.4634 H       1  UNL1        0.1734
     24 O          22.7505   72.2282   -0.2425 O.3     1  UNL1       -0.2703
     25 P          21.7005   72.4908    0.9485 P.3     1  UNL1        0.2208
     26 O          20.4279   72.9900    0.3828 O.2     1  UNL1       -0.5170
     27 O          21.4319   71.1140    1.7400 O.3     1  UNL1       -0.4371
     28 O          22.3025   73.5839    1.9648 O.3     1  UNL1       -0.2858
     29 C          22.5006   72.9230    3.2154 C.3     1  UNL1        0.2704
     30 C          21.4219   73.3694    4.2035 C.3     1  UNL1        0.1967
     31 C          21.5020   74.8893    4.3763 C.3     1  UNL1        0.1715
     32 C          22.9370   75.2634    4.7642 C.3     1  UNL1        0.1694
     33 C          23.9014   74.6746    3.7316 C.3     1  UNL1        0.1761
     34 O          20.1338   73.0106    3.7002 O.3     1  UNL1       -0.3775
     35 O          20.6005   75.3038    5.4048 O.3     1  UNL1       -0.3794
     36 O          23.2349   74.7368    6.0580 O.3     1  UNL1       -0.3794
     37 O          23.7905   73.2520    3.7256 O.3     1  UNL1       -0.3258
     38 H          20.1311   72.0489    3.6006 H       1  UNL1        0.2106
     39 H          19.7154   75.0384    5.1248 H       1  UNL1        0.2105
     40 H          22.6014   75.1294    6.6727 H       1  UNL1        0.2105
     41 C          25.3351   75.0713    4.0908 C.3     1  UNL1        0.1693
     42 O          25.8448   74.1712    5.0762 O.3     1  UNL1       -0.3794
     43 H          26.7480   74.4548    5.2737 H       1  UNL1        0.2105
@<TRIPOS>BOND
     1    15    16   ar
     2    15    20   ar
     3    15     6    1
     4    16    17   ar
     5    16    21    2
     6    17    18   ar
     7    17    23    1
     8    18    19   ar
     9    18    22    2
    10    19    20   ar
    11     6     7    1
    12     6    11    1
    13     7     8    1
    14     7     9    1
    15     8    13    1
    16     9    10    1
    17     9    12    1
    18    10    11    1
    19    10     5    1
    20    12    14    1
    21     5     4    1
    22     4     1    1
    23     1     2    2
    24     1     3    1
    25     1    24    1
    26    24    25    1
    27    25    26    2
    28    25    27    1
    29    25    28    1
    30    28    29    1
    31    29    30    1
    32    29    37    1
    33    30    31    1
    34    30    34    1
    35    31    32    1
    36    31    35    1
    37    32    33    1
    38    32    36    1
    39    33    41    1
    40    33    37    1
    41    41    42    1
    42    34    38    1
    43    35    39    1
    44    36    40    1
    45    42    43    1
@<TRIPOS>MOLECULE
GDU
 43 45 0 0 0
SMALL
GASTEIGER

@<TRIPOS>ATOM
      1 P          22.4253   71.6219   -2.8036 P.3     1  UNL1        0.2189
      2 O          23.0388   72.7163   -2.0190 O.2     1  UNL1       -0.5170
      3 O          23.5189   70.4685   -3.0618 O.3     1  UNL1       -0.4371
      4 O          21.1812   71.0091   -1.9890 O.3     1  UNL1       -0.3112
      5 C          20.1142   71.9533   -2.0915 C.3     1  UNL1        0.1811
      6 C          18.1371   70.5476   -4.7453 C.3     1  UNL1        0.2383
      7 C          18.9271   69.3446   -4.1694 C.3     1  UNL1        0.1895
      8 O          18.1803   68.1331   -4.3031 O.3     1  UNL1       -0.3779
      9 C          19.0782   69.7395   -2.6772 C.3     1  UNL1        0.1713
     10 C          18.8768   71.2662   -2.6719 C.3     1  UNL1        0.1764
     11 O          18.6828   71.6798   -4.0355 O.3     1  UNL1       -0.3308
     12 O          18.0789   69.0935   -1.8859 O.3     1  UNL1       -0.3794
     13 H          18.7249   67.4270   -3.9280 H       1  UNL1        0.2106
     14 H          18.2214   68.1416   -1.9772 H       1  UNL1        0.2105
     15 N          18.3707   70.6796   -6.1843 N.ar    1  UNL1       -0.2551
     16 C          17.3450   70.5374   -7.0422 C.ar    1  UNL1        0.3323
     17 N          17.5322   70.6574   -8.3698 N.ar    1  UNL1       -0.2743
     18 C          18.7590   70.9135   -8.8631 C.ar    1  UNL1        0.2626
     19 C          19.8500   71.0600   -7.9717 C.ar    1  UNL1        0.0795
     20 C          19.6336   70.9390   -6.6447 C.ar    1  UNL1        0.0869
     21 O          16.2325   70.3067   -6.6120 O.2     1  UNL1       -0.2464
     22 O          18.9303   71.0176  -10.0649 O.2     1  UNL1       -0.2670
     23 H          16.7797   70.5560   -8.9741 H       1  UNL1        0.1734
     24 O          21.9118   72.1985   -4.2165 O.3     1  UNL1       -0.2703
     25 P          22.7708   73.5253   -4.5191 P.3     1  UNL1        0.2208
     26 O          22.2438   74.6484   -3.7129 O.2     1  UNL1       -0.5170
     27 O          24.3128   73.2655   -4.1331 O.3     1  UNL1       -0.4371
     28 O          22.6645   73.8897   -6.0830 O.3     1  UNL1       -0.2858
     29 C          22.1551   75.2214   -6.1651 C.3     1  UNL1        0.2704
     30 C          20.7541   75.1938   -6.7781 C.3     1  UNL1        0.1967
     31 C          20.8311   74.5574   -8.1694 C.3     1  UNL1        0.1715
     32 C          21.8882   75.3032   -8.9915 C.3     1  UNL1        0.1694
     33 C          23.2047   75.3208   -8.2108 C.3     1  UNL1        0.1761
     34 O          19.8828   74.4255   -5.9463 O.3     1  UNL1       -0.3775
     35 O          19.5595   74.6574   -8.8141 O.3     1  UNL1       -0.3794
     36 O          21.4509   76.6418   -9.2304 O.3     1  UNL1       -0.3794
     37 O          23.0225   76.0111   -6.9754 O.3     1  UNL1       -0.3258
     38 H          19.8704   74.8573   -5.0813 H       1  UNL1        0.2106
     39 H          18.9260   74.1864   -8.2580 H       1  UNL1        0.2105
     40 H          20.6188   76.5816   -9.7177 H       1  UNL1        0.2105
     41 C          24.2768   76.0336   -9.0382 C.3     1  UNL1        0.1693
     42 O          25.5670   75.5461   -8.6658 O.3     1  UNL1       -0.3794
     43 H          26.2124   76.0188   -9.2093 H       1  UNL1        0.2105
@<TRIPOS>BOND
     1    15    16   ar
     2    15    20   ar
     3    15     6    1
     4    16    17   ar
     5    16    21    2
     6    17    18   ar
     7    17    23    1
     8    18    19   ar
     9    18    22    2
    10    19    20   ar
    11     6     7    1
    12     6    11    1
    13     7     8    1
    14     7     9    1
    15     8    13    1
    16     9    10    1
    17     9    12    1
    18    10    11    1
    19    10     5    1
    20    12    14    1
    21     5     4    1
    22     4     1    1
    23     1     2    2
    24     1     3    1
    25     1    24    1
    26    24    25    1
    27    25    26    2
    28    25    27    1
    29    25    28    1
    30    28    29    1
    31    29    30    1
    32    29    37    1
    33    30    31    1
    34    30    34    1
    35    31    32    1
    36    31    35    1
    37    32    33    1
    38    32    36    1
    39    33    41    1
    40    33    37    1
    41    41    42    1
    42    34    38    1
    43    35    39    1
    44    36    40    1
    45    42    43    1
@<TRIPOS>MOLECULE
GDU
 43 45 0 0 0
SMALL
GASTEIGER

@<TRIPOS>ATOM
      1 P          22.5088   72.7612   -2.6379 P.3     1  UNL1        0.2189
      2 O          23.3993   73.4431   -1.6727 O.2     1  UNL1       -0.5170
      3 O          23.3841   71.8028   -3.5909 O.3     1  UNL1       -0.4371
      4 O          21.4260   71.8798   -1.8394 O.3     1  UNL1       -0.3112
      5 C          20.9968   70.8470   -2.7279 C.3     1  UNL1        0.1811
      6 C          18.4122   70.9899   -5.2233 C.3     1  UNL1        0.2383
      7 C          18.1978   69.6259   -4.5187 C.3     1  UNL1        0.1895
      8 O          16.8158   69.2606   -4.5245 O.3     1  UNL1       -0.3779
      9 C          18.6847   69.9249   -3.0769 C.3     1  UNL1        0.1713
     10 C          19.5886   71.1615   -3.2361 C.3     1  UNL1        0.1764
     11 O          19.6354   71.4834   -4.6369 O.3     1  UNL1       -0.3308
     12 O          17.5748   70.2146   -2.2247 O.3     1  UNL1       -0.3794
     13 H          16.7511   68.4071   -4.0738 H       1  UNL1        0.2106
     14 H          17.0173   69.4248   -2.2128 H       1  UNL1        0.2105
     15 N          18.5691   70.8079   -6.6673 N.ar    1  UNL1       -0.2551
     16 C          17.4798   70.7312   -7.4520 C.ar    1  UNL1        0.3323
     17 N          17.5966   70.5675   -8.7830 N.ar    1  UNL1       -0.2743
     18 C          18.8135   70.4676   -9.3517 C.ar    1  UNL1        0.2626
     19 C          19.9696   70.5409   -8.5367 C.ar    1  UNL1        0.0795
     20 C          19.8241   70.7096   -7.2053 C.ar    1  UNL1        0.0869
     21 O          16.3755   70.8201   -6.9534 O.2     1  UNL1       -0.2464
     22 O          18.9200   70.3147  -10.5557 O.2     1  UNL1       -0.2670
     23 H          16.7997   70.5185   -9.3347 H       1  UNL1        0.1734
     24 O          21.7501   73.8610   -3.5363 O.3     1  UNL1       -0.2703
     25 P          22.6834   74.1417   -4.8170 P.3     1  UNL1        0.2208
     26 O          24.0709   74.3948   -4.3700 O.2     1  UNL1       -0.5170
     27 O          22.6592   72.8583   -5.7899 O.3     1  UNL1       -0.4371
     28 O          22.1319   75.4272   -5.6128 O.3     1  UNL1       -0.2858
     29 C          22.1574   75.0976   -7.0022 C.3     1  UNL1        0.2704
     30 C          23.1002   76.0533   -7.7350 C.3     1  UNL1        0.1967
     31 C          22.6122   77.4906   -7.5291 C.3     1  UNL1        0.1715
     32 C          21.1411   77.5739   -7.9517 C.3     1  UNL1        0.1694
     33 C          20.3460   76.5033   -7.2003 C.3     1  UNL1        0.1761
     34 O          24.4227   75.9157   -7.2121 O.3     1  UNL1       -0.3775
     35 O          23.3945   78.3821   -8.3263 O.3     1  UNL1       -0.3794
     36 O          21.0352   77.3549   -9.3591 O.3     1  UNL1       -0.3794
     37 O          20.8416   75.2090   -7.5395 O.3     1  UNL1       -0.3258
     38 H          24.6855   74.9965   -7.3565 H       1  UNL1        0.2106
     39 H          24.3102   78.2877   -8.0351 H       1  UNL1        0.2105
     40 H          21.5541   78.0465   -9.7898 H       1  UNL1        0.2105
     41 C          18.8691   76.6003   -7.5894 C.3     1  UNL1        0.1693
     42 O          18.6122   75.7379   -8.6990 O.3     1  UNL1       -0.3794
     43 H          17.6731   75.8279   -8.9118 H       1  UNL1        0.2105
@<TRIPOS>BOND
     1    15    16   ar
     2    15    20   ar
     3    15     6    1
     4    16    17   ar
     5    16    21    2
     6    17    18   ar
     7    17    23    1
     8    18    19   ar
     9    18    22    2
    10    19    20   ar
    11     6     7    1
    12     6    11    1
    13     7     8    1
    14     7     9    1
    15     8    13    1
    16     9    10    1
    17     9    12    1
    18    10    11    1
    19    10     5    1
    20    12    14    1
    21     5     4    1
    22     4     1    1
    23     1     2    2
    24     1     3    1
    25     1    24    1
    26    24    25    1
    27    25    26    2
    28    25    27    1
    29    25    28    1
    30    28    29    1
    31    29    30    1
    32    29    37    1
    33    30    31    1
    34    30    34    1
    35    31    32    1
    36    31    35    1
    37    32    33    1
    38    32    36    1
    39    33    41    1
    40    33    37    1
    41    41    42    1
    42    34    38    1
    43    35    39    1
    44    36    40    1
    45    42    43    1
@<TRIPOS>MOLECULE
GDU
 43 45 0 0 0
SMALL
GASTEIGER

@<TRIPOS>ATOM
      1 P          21.6597   70.3683   -0.4499 P.3     1  UNL1        0.2189
      2 O          21.6711   69.2642    0.5352 O.2     1  UNL1       -0.5170
      3 O          23.1705   70.7105   -0.8897 O.3     1  UNL1       -0.4371
      4 O          20.8116   69.9257   -1.7428 O.3     1  UNL1       -0.3112
      5 C          20.8797   71.0080   -2.6726 C.3     1  UNL1        0.1811
      6 C          18.3341   71.0771   -5.2109 C.3     1  UNL1        0.2383
      7 C          18.1070   69.7355   -4.4684 C.3     1  UNL1        0.1895
      8 O          16.7248   69.3714   -4.4846 O.3     1  UNL1       -0.3779
      9 C          18.5720   70.0779   -3.0291 C.3     1  UNL1        0.1713
     10 C          19.4799   71.3082   -3.2119 C.3     1  UNL1        0.1764
     11 O          19.5488   71.5872   -4.6210 O.3     1  UNL1       -0.3308
     12 O          17.4494   70.3944   -2.2034 O.3     1  UNL1       -0.3794
     13 H          16.6519   68.5321   -4.0091 H       1  UNL1        0.2106
     14 H          16.8907   69.6059   -2.1761 H       1  UNL1        0.2105
     15 N          18.5131   70.8511   -6.6461 N.ar    1  UNL1       -0.2551
     16 C          17.4360   70.7495   -7.4446 C.ar    1  UNL1        0.3323
     17 N          17.5730   70.5453   -8.7680 N.ar    1  UNL1       -0.2743
     18 C          18.7985   70.4288   -9.3147 C.ar    1  UNL1        0.2626
     19 C          19.9421   70.5279   -8.4849 C.ar    1  UNL1        0.0795
     20 C          19.7762   70.7372   -7.1616 C.ar    1  UNL1        0.0869
     21 O          16.3241   70.8530   -6.9659 O.2     1  UNL1       -0.2464
     22 O          18.9234   70.2391  -10.5118 O.2     1  UNL1       -0.2670
     23 H          16.7847   70.4788   -9.3300 H       1  UNL1        0.1734
     24 O          20.9873   71.6718    0.2142 O.3     1  UNL1       -0.2703
     25 P          21.8885   72.0638    1.4887 P.3     1  UNL1        0.2208
     26 O          22.6525   70.8782    1.9357 O.2     1  UNL1       -0.5170
     27 O          22.9120   73.2386    1.0810 O.3     1  UNL1       -0.4371
     28 O          20.9379   72.5725    2.6835 O.3     1  UNL1       -0.2858
     29 C          21.5488   73.7418    3.2306 C.3     1  UNL1        0.2704
     30 C          21.3429   73.7622    4.7460 C.3     1  UNL1        0.1967
     31 C          19.8408   73.7463    5.0454 C.3     1  UNL1        0.1715
     32 C          19.1766   74.8973    4.2814 C.3     1  UNL1        0.1694
     33 C          19.5455   74.7896    2.7997 C.3     1  UNL1        0.1761
     34 O          21.9608   72.6132    5.3284 O.3     1  UNL1       -0.3775
     35 O          19.6292   73.9132    6.4489 O.3     1  UNL1       -0.3794
     36 O          19.6356   76.1450    4.8035 O.3     1  UNL1       -0.3794
     37 O          20.9597   74.9013    2.6464 O.3     1  UNL1       -0.3258
     38 H          22.9013   72.6608    5.1092 H       1  UNL1        0.2106
     39 H          20.0725   73.1766    6.8883 H       1  UNL1        0.2105
     40 H          19.3873   76.1662    5.7369 H       1  UNL1        0.2105
     41 C          18.8593   75.9148    2.0219 C.3     1  UNL1        0.1693
     42 O          19.7925   76.5029    1.1140 O.3     1  UNL1       -0.3794
     43 H          19.3215   77.2049    0.6443 H       1  UNL1        0.2105
@<TRIPOS>BOND
     1    15    16   ar
     2    15    20   ar
     3    15     6    1
     4    16    17   ar
     5    16    21    2
     6    17    18   ar
     7    17    23    1
     8    18    19   ar
     9    18    22    2
    10    19    20   ar
    11     6     7    1
    12     6    11    1
    13     7     8    1
    14     7     9    1
    15     8    13    1
    16     9    10    1
    17     9    12    1
    18    10    11    1
    19    10     5    1
    20    12    14    1
    21     5     4    1
    22     4     1    1
    23     1     2    2
    24     1     3    1
    25     1    24    1
    26    24    25    1
    27    25    26    2
    28    25    27    1
    29    25    28    1
    30    28    29    1
    31    29    30    1
    32    29    37    1
    33    30    31    1
    34    30    34    1
    35    31    32    1
    36    31    35    1
    37    32    33    1
    38    32    36    1
    39    33    41    1
    40    33    37    1
    41    41    42    1
    42    34    38    1
    43    35    39    1
    44    36    40    1
    45    42    43    1
@<TRIPOS>MOLECULE
GDU
 43 45 0 0 0
SMALL
GASTEIGER

@<TRIPOS>ATOM
      1 P          21.8535   74.7002   -6.9873 P.3     1  UNL1        0.2189
      2 O          23.2216   75.2627   -7.0227 O.2     1  UNL1       -0.5170
      3 O          20.8566   75.6617   -7.8088 O.3     1  UNL1       -0.4371
      4 O          21.8572   73.2362   -7.6533 O.3     1  UNL1       -0.3112
      5 C          21.2979   73.3749   -8.9604 C.3     1  UNL1        0.1811
      6 C          18.6721   71.2431   -7.7403 C.3     1  UNL1        0.2383
      7 C          17.9872   72.6159   -7.9623 C.3     1  UNL1        0.1895
      8 O          16.6125   72.4487   -8.3164 O.3     1  UNL1       -0.3779
      9 C          18.7980   73.1951   -9.1507 C.3     1  UNL1        0.1713
     10 C          20.1220   72.4092   -9.1189 C.3     1  UNL1        0.1764
     11 O          20.0667   71.5178   -7.9917 O.3     1  UNL1       -0.3308
     12 O          18.1069   72.9743  -10.3818 O.3     1  UNL1       -0.3794
     13 H          16.2464   73.3356   -8.4395 H       1  UNL1        0.2106
     14 H          17.2631   73.4416  -10.3170 H       1  UNL1        0.2105
     15 N          18.4769   70.7833   -6.3644 N.ar    1  UNL1       -0.2551
     16 C          17.3445   70.1393   -6.0308 C.ar    1  UNL1        0.3323
     17 N          17.1417   69.7032   -4.7736 N.ar    1  UNL1       -0.2743
     18 C          18.0712   69.9149   -3.8221 C.ar    1  UNL1        0.2626
     19 C          19.2664   70.5970   -4.1577 C.ar    1  UNL1        0.0795
     20 C          19.4461   71.0200   -5.4270 C.ar    1  UNL1        0.0869
     21 O          16.4971   69.9406   -6.8784 O.2     1  UNL1       -0.2464
     22 O          17.8865   69.5247   -2.6828 O.2     1  UNL1       -0.2670
     23 H          16.3203   69.2364   -4.5515 H       1  UNL1        0.1734
     24 O          21.3571   74.5949   -5.4592 O.3     1  UNL1       -0.2703
     25 P          22.4463   73.7069   -4.6749 P.3     1  UNL1        0.2208
     26 O          22.8723   72.5788   -5.5321 O.2     1  UNL1       -0.5170
     27 O          23.7239   74.6194   -4.3155 O.3     1  UNL1       -0.4371
     28 O          21.7976   73.1355   -3.3175 O.3     1  UNL1       -0.2858
     29 C          22.8800   72.8232   -2.4397 C.3     1  UNL1        0.2704
     30 C          22.8273   71.3389   -2.0744 C.3     1  UNL1        0.1967
     31 C          21.4833   71.0378   -1.4041 C.3     1  UNL1        0.1715
     32 C          21.2932   72.0055   -0.2306 C.3     1  UNL1        0.1694
     33 C          21.4604   73.4404   -0.7366 C.3     1  UNL1        0.1761
     34 O          22.9611   70.5497   -3.2578 O.3     1  UNL1       -0.3775
     35 O          21.4766   69.6913   -0.9252 O.3     1  UNL1       -0.3794
     36 O          22.2682   71.7322    0.7767 O.3     1  UNL1       -0.3794
     37 O          22.7764   73.6162   -1.2594 O.3     1  UNL1       -0.3258
     38 H          23.8156   70.7767   -3.6493 H       1  UNL1        0.2106
     39 H          21.6107   69.1207   -1.6924 H       1  UNL1        0.2105
     40 H          22.1291   70.8194    1.0606 H       1  UNL1        0.2105
     41 C          21.2386   74.4166    0.4209 C.3     1  UNL1        0.1693
     42 O          20.3918   73.8102    1.3987 O.3     1  UNL1       -0.3794
     43 H          20.2779   74.4560    2.1095 H       1  UNL1        0.2105
@<TRIPOS>BOND
     1    15    16   ar
     2    15    20   ar
     3    15     6    1
     4    16    17   ar
     5    16    21    2
     6    17    18   ar
     7    17    23    1
     8    18    19   ar
     9    18    22    2
    10    19    20   ar
    11     6     7    1
    12     6    11    1
    13     7     8    1
    14     7     9    1
    15     8    13    1
    16     9    10    1
    17     9    12    1
    18    10    11    1
    19    10     5    1
    20    12    14    1
    21     5     4    1
    22     4     1    1
    23     1     2    2
    24     1     3    1
    25     1    24    1
    26    24    25    1
    27    25    26    2
    28    25    27    1
    29    25    28    1
    30    28    29    1
    31    29    30    1
    32    29    37    1
    33    30    31    1
    34    30    34    1
    35    31    32    1
    36    31    35    1
    37    32    33    1
    38    32    36    1
    39    33    41    1
    40    33    37    1
    41    41    42    1
    42    34    38    1
    43    35    39    1
    44    36    40    1
    45    42    43    1
@<TRIPOS>MOLECULE
GDU
 43 45 0 0 0
SMALL
GASTEIGER

@<TRIPOS>ATOM
      1 P          23.3827   73.6477   -3.1919 P.3     1  UNL1        0.2189
      2 O          23.8743   72.8453   -4.3339 O.2     1  UNL1       -0.5170
      3 O          22.2561   74.6774   -3.7051 O.3     1  UNL1       -0.4371
      4 O          22.7508   72.6706   -2.0815 O.3     1  UNL1       -0.3112
      5 C          21.4302   73.1458   -1.8156 C.3     1  UNL1        0.1811
      6 C          19.2551   70.7276   -3.3482 C.3     1  UNL1        0.2383
      7 C          20.6239   70.0078   -3.2422 C.3     1  UNL1        0.1895
      8 O          20.4476   68.5991   -3.0754 O.3     1  UNL1       -0.3779
      9 C          21.2278   70.6448   -1.9636 C.3     1  UNL1        0.1713
     10 C          20.4550   71.9672   -1.8035 C.3     1  UNL1        0.1764
     11 O          19.5474   72.0728   -2.9140 O.3     1  UNL1       -0.3308
     12 O          21.0172   69.7946   -0.8346 O.3     1  UNL1       -0.3794
     13 H          21.3324   68.2124   -3.0167 H       1  UNL1        0.2106
     14 H          21.4750   68.9636   -1.0204 H       1  UNL1        0.2105
     15 N          18.7741   70.7249   -4.7307 N.ar    1  UNL1       -0.2551
     16 C          17.5150   70.3357   -4.9980 C.ar    1  UNL1        0.3323
     17 N          17.0470   70.3274   -6.2601 N.ar    1  UNL1       -0.2743
     18 C          17.8405   70.7015   -7.2821 C.ar    1  UNL1        0.2626
     19 C          19.1709   71.1084   -7.0162 C.ar    1  UNL1        0.0795
     20 C          19.6135   71.1114   -5.7408 C.ar    1  UNL1        0.0869
     21 O          16.7873   69.9959   -4.0864 O.2     1  UNL1       -0.2464
     22 O          17.4193   70.6897   -8.4253 O.2     1  UNL1       -0.2670
     23 H          16.1342   70.0476   -6.4342 H       1  UNL1        0.1734
     24 O          24.6078   74.4713   -2.5491 O.3     1  UNL1       -0.2703
     25 P          25.2009   75.4102   -3.7139 P.3     1  UNL1        0.2208
     26 O          24.3047   75.3623   -4.8902 O.2     1  UNL1       -0.5170
     27 O          25.3044   76.9264   -3.1802 O.3     1  UNL1       -0.4371
     28 O          26.6649   74.8887   -4.1318 O.3     1  UNL1       -0.2858
     29 C          27.4580   76.0465   -4.3964 C.3     1  UNL1        0.2704
     30 C          27.9483   76.0078   -5.8447 C.3     1  UNL1        0.1967
     31 C          28.7666   74.7309   -6.0601 C.3     1  UNL1        0.1715
     32 C          29.8687   74.6699   -4.9965 C.3     1  UNL1        0.1694
     33 C          29.2320   74.8082   -3.6114 C.3     1  UNL1        0.1761
     34 O          26.8269   76.0145   -6.7299 O.3     1  UNL1       -0.3775
     35 O          29.3538   74.7510   -7.3629 O.3     1  UNL1       -0.3794
     36 O          30.7974   75.7340   -5.2092 O.3     1  UNL1       -0.3794
     37 O          28.5731   76.0696   -3.5083 O.3     1  UNL1       -0.3258
     38 H          26.3381   76.8301   -6.5548 H       1  UNL1        0.2106
     39 H          28.6271   74.8016   -7.9967 H       1  UNL1        0.2105
     40 H          31.1678   75.6098   -6.0928 H       1  UNL1        0.2105
     41 C          30.3206   74.7142   -2.5399 C.3     1  UNL1        0.1693
     42 O          29.7120   74.6182   -1.2510 O.3     1  UNL1       -0.3794
     43 H          30.4302   74.5603   -0.6059 H       1  UNL1        0.2105
@<TRIPOS>BOND
     1    15    16   ar
     2    15    20   ar
     3    15     6    1
     4    16    17   ar
     5    16    21    2
     6    17    18   ar
     7    17    23    1
     8    18    19   ar
     9    18    22    2
    10    19    20   ar
    11     6     7    1
    12     6    11    1
    13     7     8    1
    14     7     9    1
    15     8    13    1
    16     9    10    1
    17     9    12    1
    18    10    11    1
    19    10     5    1
    20    12    14    1
    21     5     4    1
    22     4     1    1
    23     1     2    2
    24     1     3    1
    25     1    24    1
    26    24    25    1
    27    25    26    2
    28    25    27    1
    29    25    28    1
    30    28    29    1
    31    29    30    1
    32    29    37    1
    33    30    31    1
    34    30    34    1
    35    31    32    1
    36    31    35    1
    37    32    33    1
    38    32    36    1
    39    33    41    1
    40    33    37    1
    41    41    42    1
    42    34    38    1
    43    35    39    1
    44    36    40    1
    45    42    43    1
@<TRIPOS>MOLECULE
GDU
 43 45 0 0 0
SMALL
GASTEIGER

@<TRIPOS>ATOM
      1 P          22.7572   75.3845   -4.6087 P.3     1  UNL1        0.2189
      2 O          24.1955   75.1411   -4.8571 O.2     1  UNL1       -0.5170
      3 O          22.4459   76.9574   -4.7564 O.3     1  UNL1       -0.4371
      4 O          21.8810   74.5613   -5.6771 O.3     1  UNL1       -0.3112
      5 C          22.5317   74.7006   -6.9411 C.3     1  UNL1        0.1811
      6 C          19.4204   73.7538   -8.4742 C.3     1  UNL1        0.2383
      7 C          19.0978   75.0686   -7.7189 C.3     1  UNL1        0.1895
      8 O          18.0683   75.8012   -8.3873 O.3     1  UNL1       -0.3779
      9 C          20.4501   75.8245   -7.7905 C.3     1  UNL1        0.1713
     10 C          21.4851   74.7156   -8.0566 C.3     1  UNL1        0.1764
     11 O          20.7783   73.4634   -8.0801 O.3     1  UNL1       -0.3308
     12 O          20.4366   76.7725   -8.8595 O.3     1  UNL1       -0.3794
     13 H          17.9157   76.6036   -7.8690 H       1  UNL1        0.2106
     14 H          19.7311   77.4042   -8.6648 H       1  UNL1        0.2105
     15 N          18.5199   72.6797   -8.0520 N.ar    1  UNL1       -0.2551
     16 C          18.3250   71.6188   -8.8549 C.ar    1  UNL1        0.3323
     17 N          17.5050   70.6160   -8.4890 N.ar    1  UNL1       -0.2743
     18 C          16.8553   70.6647   -7.3101 C.ar    1  UNL1        0.2626
     19 C          17.0464   71.7789   -6.4567 C.ar    1  UNL1        0.0795
     20 C          17.8777   72.7687   -6.8463 C.ar    1  UNL1        0.0869
     21 O          18.9045   71.5605   -9.9212 O.2     1  UNL1       -0.2464
     22 O          16.1091   69.7598   -6.9801 O.2     1  UNL1       -0.2670
     23 H          17.3794   69.8558   -9.0790 H       1  UNL1        0.1734
     24 O          22.3817   74.9021   -3.1192 O.3     1  UNL1       -0.2703
     25 P          22.5625   73.3033   -3.0870 P.3     1  UNL1        0.2208
     26 O          23.5764   72.9015   -4.0869 O.2     1  UNL1       -0.5170
     27 O          23.0465   72.8476   -1.6199 O.3     1  UNL1       -0.4371
     28 O          21.1584   72.5963   -3.4311 O.3     1  UNL1       -0.2858
     29 C          20.7918   71.8231   -2.2876 C.3     1  UNL1        0.2704
     30 C          20.9087   70.3348   -2.6206 C.3     1  UNL1        0.1967
     31 C          19.9922   70.0156   -3.8057 C.3     1  UNL1        0.1715
     32 C          18.5763   70.5007   -3.4749 C.3     1  UNL1        0.1694
     33 C          18.6362   71.9781   -3.0788 C.3     1  UNL1        0.1761
     34 O          22.2610   70.0256   -2.9624 O.3     1  UNL1       -0.3775
     35 O          19.9777   68.6050   -4.0351 O.3     1  UNL1       -0.3794
     36 O          18.0484   69.7321   -2.3930 O.3     1  UNL1       -0.3794
     37 O          19.4503   72.1323   -1.9172 O.3     1  UNL1       -0.3258
     38 H          22.8014   70.2484   -2.1922 H       1  UNL1        0.2106
     39 H          20.8871   68.3432   -4.2268 H       1  UNL1        0.2105
     40 H          18.0347   68.8111   -2.6846 H       1  UNL1        0.2105
     41 C          17.2225   72.4818   -2.7794 C.3     1  UNL1        0.1693
     42 O          16.2980   71.3984   -2.8914 O.3     1  UNL1       -0.3794
     43 H          15.4216   71.7569   -2.6949 H       1  UNL1        0.2105
@<TRIPOS>BOND
     1    15    16   ar
     2    15    20   ar
     3    15     6    1
     4    16    17   ar
     5    16    21    2
     6    17    18   ar
     7    17    23    1
     8    18    19   ar
     9    18    22    2
    10    19    20   ar
    11     6     7    1
    12     6    11    1
    13     7     8    1
    14     7     9    1
    15     8    13    1
    16     9    10    1
    17     9    12    1
    18    10    11    1
    19    10     5    1
    20    12    14    1
    21     5     4    1
    22     4     1    1
    23     1     2    2
    24     1     3    1
    25     1    24    1
    26    24    25    1
    27    25    26    2
    28    25    27    1
    29    25    28    1
    30    28    29    1
    31    29    30    1
    32    29    37    1
    33    30    31    1
    34    30    34    1
    35    31    32    1
    36    31    35    1
    37    32    33    1
    38    32    36    1
    39    33    41    1
    40    33    37    1
    41    41    42    1
    42    34    38    1
    43    35    39    1
    44    36    40    1
    45    42    43    1
@<TRIPOS>MOLECULE
GDU
 43 45 0 0 0
SMALL
GASTEIGER

@<TRIPOS>ATOM
      1 P          22.0811   71.2577   -1.7155 P.3     1  UNL1        0.2189
      2 O          22.0586   69.8969   -2.2962 O.2     1  UNL1       -0.5170
      3 O          22.6009   72.3051   -2.8227 O.3     1  UNL1       -0.4371
      4 O          20.5980   71.6656   -1.2455 O.3     1  UNL1       -0.3112
      5 C          19.6882   71.0009   -2.1235 C.3     1  UNL1        0.1811
      6 C          18.1094   72.4877   -4.9913 C.3     1  UNL1        0.2383
      7 C          17.0494   71.5064   -4.4287 C.3     1  UNL1        0.1895
      8 O          15.7264   71.9825   -4.6859 O.3     1  UNL1       -0.3779
      9 C          17.3598   71.5290   -2.9093 C.3     1  UNL1        0.1713
     10 C          18.8119   72.0359   -2.8315 C.3     1  UNL1        0.1764
     11 O          19.2743   72.2269   -4.1798 O.3     1  UNL1       -0.3308
     12 O          16.4740   72.4224   -2.2317 O.3     1  UNL1       -0.3794
     13 H          15.1177   71.3297   -4.3128 H       1  UNL1        0.2106
     14 H          15.5783   72.0846   -2.3665 H       1  UNL1        0.2105
     15 N          18.3866   72.1992   -6.3994 N.ar    1  UNL1       -0.2551
     16 C          19.0860   71.0992   -6.7296 C.ar    1  UNL1        0.3323
     17 N          19.3514   70.8091   -8.0169 N.ar    1  UNL1       -0.2743
     18 C          18.9265   71.6262   -8.9997 C.ar    1  UNL1        0.2626
     19 C          18.1936   72.7915   -8.6665 C.ar    1  UNL1        0.0795
     20 C          17.9376   73.0565   -7.3677 C.ar    1  UNL1        0.0869
     21 O          19.4755   70.3524   -5.8540 O.2     1  UNL1       -0.2464
     22 O          19.1704   71.3669  -10.1650 O.2     1  UNL1       -0.2670
     23 H          19.8539   70.0086   -8.2373 H       1  UNL1        0.1734
     24 O          23.0732   71.2827   -0.4476 O.3     1  UNL1       -0.2703
     25 P          22.3062   70.5450    0.7597 P.3     1  UNL1        0.2208
     26 O          21.5033   69.4245    0.2221 O.2     1  UNL1       -0.5170
     27 O          23.3845   69.9754    1.8118 O.3     1  UNL1       -0.4371
     28 O          21.3367   71.5937    1.5014 O.3     1  UNL1       -0.2858
     29 C          22.1702   72.6227    2.0363 C.3     1  UNL1        0.2704
     30 C          21.8263   72.8417    3.5105 C.3     1  UNL1        0.1967
     31 C          20.3485   73.2283    3.6255 C.3     1  UNL1        0.1715
     32 C          20.0829   74.4276    2.7086 C.3     1  UNL1        0.1694
     33 C          20.5576   74.0872    1.2938 C.3     1  UNL1        0.1761
     34 O          22.0660   71.6380    4.2418 O.3     1  UNL1       -0.3775
     35 O          20.0479   73.5790    4.9780 O.3     1  UNL1       -0.3794
     36 O          20.7931   75.5673    3.1949 O.3     1  UNL1       -0.3794
     37 O          21.9609   73.8291    1.3060 O.3     1  UNL1       -0.3258
     38 H          23.0041   71.4293    4.1357 H       1  UNL1        0.2106
     39 H          20.2404   72.8020    5.5180 H       1  UNL1        0.2105
     40 H          20.4667   75.7407    4.0874 H       1  UNL1        0.2105
     41 C          20.2656   75.2658    0.3623 C.3     1  UNL1        0.1693
     42 O          19.9404   74.7741   -0.9390 O.3     1  UNL1       -0.3794
     43 H          19.7630   75.5462   -1.4937 H       1  UNL1        0.2105
@<TRIPOS>BOND
     1    15    16   ar
     2    15    20   ar
     3    15     6    1
     4    16    17   ar
     5    16    21    2
     6    17    18   ar
     7    17    23    1
     8    18    19   ar
     9    18    22    2
    10    19    20   ar
    11     6     7    1
    12     6    11    1
    13     7     8    1
    14     7     9    1
    15     8    13    1
    16     9    10    1
    17     9    12    1
    18    10    11    1
    19    10     5    1
    20    12    14    1
    21     5     4    1
    22     4     1    1
    23     1     2    2
    24     1     3    1
    25     1    24    1
    26    24    25    1
    27    25    26    2
    28    25    27    1
    29    25    28    1
    30    28    29    1
    31    29    30    1
    32    29    37    1
    33    30    31    1
    34    30    34    1
    35    31    32    1
    36    31    35    1
    37    32    33    1
    38    32    36    1
    39    33    41    1
    40    33    37    1
    41    41    42    1
    42    34    38    1
    43    35    39    1
    44    36    40    1
    45    42    43    1
@<TRIPOS>MOLECULE
GDU
 43 45 0 0 0
SMALL
GASTEIGER

@<TRIPOS>ATOM
      1 P          22.7947   72.0370   -3.4826 P.3     1  UNL1        0.2189
      2 O          23.7410   72.9260   -4.1922 O.2     1  UNL1       -0.5170
      3 O          23.4985   70.6154   -3.2060 O.3     1  UNL1       -0.4371
      4 O          22.3735   72.7087   -2.0831 O.3     1  UNL1       -0.3112
      5 C          21.4865   71.7949   -1.4360 C.3     1  UNL1        0.1811
      6 C          21.2427   73.6482    1.6354 C.3     1  UNL1        0.2383
      7 C          21.2906   74.7330    0.5291 C.3     1  UNL1        0.1895
      8 O          20.5541   75.8938    0.9209 O.3     1  UNL1       -0.3779
      9 C          20.6003   74.0152   -0.6599 C.3     1  UNL1        0.1713
     10 C          20.7306   72.5188   -0.3203 C.3     1  UNL1        0.1764
     11 O          21.4654   72.4192    0.9119 O.3     1  UNL1       -0.3308
     12 O          19.2262   74.3980   -0.7448 O.3     1  UNL1       -0.3794
     13 H          20.6236   76.5270    0.1928 H       1  UNL1        0.2106
     14 H          19.2103   75.3523   -0.8991 H       1  UNL1        0.2105
     15 N          22.3031   73.8661    2.6207 N.ar    1  UNL1       -0.2551
     16 C          23.4694   74.4133    2.2352 C.ar    1  UNL1        0.3323
     17 N          24.4593   74.6275    3.1219 N.ar    1  UNL1       -0.2743
     18 C          24.2995   74.2860    4.4150 C.ar    1  UNL1        0.2626
     19 C          23.0784   73.7034    4.8343 C.ar    1  UNL1        0.0795
     20 C          22.1007   73.5035    3.9252 C.ar    1  UNL1        0.0869
     21 O          23.6280   74.7269    1.0722 O.2     1  UNL1       -0.2464
     22 O          25.1967   74.4751    5.2174 O.2     1  UNL1       -0.2670
     23 H          25.2929   75.0274    2.8270 H       1  UNL1        0.1734
     24 O          21.4830   71.8173   -4.3901 O.3     1  UNL1       -0.2703
     25 P          21.4926   72.9716   -5.5114 P.3     1  UNL1        0.2208
     26 O          21.5086   74.2972   -4.8543 O.2     1  UNL1       -0.5170
     27 O          22.8045   72.8139   -6.4324 O.3     1  UNL1       -0.4371
     28 O          20.1762   72.8419   -6.4281 O.3     1  UNL1       -0.2858
     29 C          20.5874   73.0612   -7.7781 C.3     1  UNL1        0.2704
     30 C          19.9199   74.3287   -8.3141 C.3     1  UNL1        0.1967
     31 C          18.3992   74.1643   -8.2318 C.3     1  UNL1        0.1715
     32 C          18.0070   72.8674   -8.9488 C.3     1  UNL1        0.1694
     33 C          18.8188   71.7096   -8.3627 C.3     1  UNL1        0.1761
     34 O          20.3246   75.4515   -7.5288 O.3     1  UNL1       -0.3775
     35 O          17.7612   75.2765   -8.8630 O.3     1  UNL1       -0.3794
     36 O          18.2816   72.9914  -10.3449 O.3     1  UNL1       -0.3794
     37 O          20.2105   71.9412   -8.5758 O.3     1  UNL1       -0.3258
     38 H          21.2867   75.5122   -7.6040 H       1  UNL1        0.2106
     39 H          18.0449   76.0681   -8.3886 H       1  UNL1        0.2105
     40 H          17.7550   73.7337  -10.6689 H       1  UNL1        0.2105
     41 C          18.4099   70.4039   -9.0483 C.3     1  UNL1        0.1693
     42 O          18.9414   70.3763  -10.3741 O.3     1  UNL1       -0.3794
     43 H          18.6623   69.5393  -10.7702 H       1  UNL1        0.2105
@<TRIPOS>BOND
     1    15    16   ar
     2    15    20   ar
     3    15     6    1
     4    16    17   ar
     5    16    21    2
     6    17    18   ar
     7    17    23    1
     8    18    19   ar
     9    18    22    2
    10    19    20   ar
    11     6     7    1
    12     6    11    1
    13     7     8    1
    14     7     9    1
    15     8    13    1
    16     9    10    1
    17     9    12    1
    18    10    11    1
    19    10     5    1
    20    12    14    1
    21     5     4    1
    22     4     1    1
    23     1     2    2
    24     1     3    1
    25     1    24    1
    26    24    25    1
    27    25    26    2
    28    25    27    1
    29    25    28    1
    30    28    29    1
    31    29    30    1
    32    29    37    1
    33    30    31    1
    34    30    34    1
    35    31    32    1
    36    31    35    1
    37    32    33    1
    38    32    36    1
    39    33    41    1
    40    33    37    1
    41    41    42    1
    42    34    38    1
    43    35    39    1
    44    36    40    1
    45    42    43    1
@<TRIPOS>MOLECULE
GDU
 43 45 0 0 0
SMALL
GASTEIGER

@<TRIPOS>ATOM
      1 P          21.6291   71.0114    0.2071 P.3     1  UNL1        0.2189
      2 O          21.6563   69.5614    0.5009 O.2     1  UNL1       -0.5170
      3 O          23.1265   71.5284   -0.0819 O.3     1  UNL1       -0.4371
      4 O          20.7098   71.2804   -1.0849 O.3     1  UNL1       -0.3112
      5 C          20.5995   70.0376   -1.7803 C.3     1  UNL1        0.1811
      6 C          20.3572   70.9694   -5.2445 C.3     1  UNL1        0.2383
      7 C          20.9372   72.2244   -4.5436 C.3     1  UNL1        0.1895
      8 O          21.7923   72.9528   -5.4278 O.3     1  UNL1       -0.3779
      9 C          21.7488   71.6001   -3.3788 C.3     1  UNL1        0.1713
     10 C          21.1352   70.1985   -3.2042 C.3     1  UNL1        0.1764
     11 O          20.0567   70.0799   -4.1481 O.3     1  UNL1       -0.3308
     12 O          23.1318   71.5083   -3.7264 O.3     1  UNL1       -0.3794
     13 H          22.1183   73.7176   -4.9332 H       1  UNL1        0.2106
     14 H          23.4425   72.4108   -3.8802 H       1  UNL1        0.2105
     15 N          19.1397   71.3056   -5.9844 N.ar    1  UNL1       -0.2551
     16 C          19.0361   70.9745   -7.2837 C.ar    1  UNL1        0.3323
     17 N          17.9261   71.2690   -7.9859 N.ar    1  UNL1       -0.2743
     18 C          16.8997   71.9124   -7.3971 C.ar    1  UNL1        0.2626
     19 C          16.9971   72.2725   -6.0307 C.ar    1  UNL1        0.0795
     20 C          18.1199   71.9613   -5.3488 C.ar    1  UNL1        0.0869
     21 O          19.9536   70.3934   -7.8283 O.2     1  UNL1       -0.2464
     22 O          15.8965   72.1836   -8.0332 O.2     1  UNL1       -0.2670
     23 H          17.8667   71.0187   -8.9216 H       1  UNL1        0.1734
     24 O          21.0243   71.8030    1.4720 O.3     1  UNL1       -0.2703
     25 P          22.2654   72.1751    2.4265 P.3     1  UNL1        0.2208
     26 O          23.1288   70.9860    2.5988 O.2     1  UNL1       -0.5170
     27 O          23.1194   73.3651    1.7567 O.3     1  UNL1       -0.4371
     28 O          21.7157   72.6527    3.8617 O.3     1  UNL1       -0.2858
     29 C          21.7556   74.0804    3.8671 C.3     1  UNL1        0.2704
     30 C          22.3643   74.5677    5.1830 C.3     1  UNL1        0.1967
     31 C          21.5171   74.0459    6.3476 C.3     1  UNL1        0.1715
     32 C          20.0581   74.4533    6.1135 C.3     1  UNL1        0.1694
     33 C          19.6235   73.9725    4.7267 C.3     1  UNL1        0.1761
     34 O          23.7004   74.0763    5.3032 O.3     1  UNL1       -0.3775
     35 O          21.9854   74.6121    7.5734 O.3     1  UNL1       -0.3794
     36 O          19.9407   75.8747    6.1901 O.3     1  UNL1       -0.3794
     37 O          20.4321   74.5916    3.7273 O.3     1  UNL1       -0.3258
     38 H          24.1942   74.4229    4.5476 H       1  UNL1        0.2106
     39 H          22.9067   74.3407    7.6731 H       1  UNL1        0.2105
     40 H          20.2295   76.1320    7.0754 H       1  UNL1        0.2105
     41 C          18.1570   74.3443    4.4964 C.3     1  UNL1        0.1693
     42 O          17.4595   74.3226    5.7430 O.3     1  UNL1       -0.3794
     43 H          16.5418   74.5626    5.5544 H       1  UNL1        0.2105
@<TRIPOS>BOND
     1    15    16   ar
     2    15    20   ar
     3    15     6    1
     4    16    17   ar
     5    16    21    2
     6    17    18   ar
     7    17    23    1
     8    18    19   ar
     9    18    22    2
    10    19    20   ar
    11     6     7    1
    12     6    11    1
    13     7     8    1
    14     7     9    1
    15     8    13    1
    16     9    10    1
    17     9    12    1
    18    10    11    1
    19    10     5    1
    20    12    14    1
    21     5     4    1
    22     4     1    1
    23     1     2    2
    24     1     3    1
    25     1    24    1
    26    24    25    1
    27    25    26    2
    28    25    27    1
    29    25    28    1
    30    28    29    1
    31    29    30    1
    32    29    37    1
    33    30    31    1
    34    30    34    1
    35    31    32    1
    36    31    35    1
    37    32    33    1
    38    32    36    1
    39    33    41    1
    40    33    37    1
    41    41    42    1
    42    34    38    1
    43    35    39    1
    44    36    40    1
    45    42    43    1
@<TRIPOS>MOLECULE
GDU
 43 45 0 0 0
SMALL
GASTEIGER

@<TRIPOS>ATOM
      1 P          21.1014   70.5266   -1.7754 P.3     1  UNL1        0.2189
      2 O          21.2344   69.5211   -2.8528 O.2     1  UNL1       -0.5170
      3 O          21.1426   69.7888   -0.3447 O.3     1  UNL1       -0.4371
      4 O          22.3131   71.5799   -1.8711 O.3     1  UNL1       -0.3112
      5 C          22.7451   71.8362   -0.5339 C.3     1  UNL1        0.1811
      6 C          22.1217   74.4491    1.8560 C.3     1  UNL1        0.2383
      7 C          23.5558   74.7292    1.3385 C.3     1  UNL1        0.1895
      8 O          23.8415   76.1296    1.3608 O.3     1  UNL1       -0.3779
      9 C          23.4841   74.2024   -0.1184 C.3     1  UNL1        0.1713
     10 C          22.2881   73.2324   -0.1072 C.3     1  UNL1        0.1764
     11 O          21.7802   73.1904    1.2376 O.3     1  UNL1       -0.3308
     12 O          23.2544   75.2799   -1.0285 O.3     1  UNL1       -0.3794
     13 H          24.7440   76.2354    1.0289 H       1  UNL1        0.2106
     14 H          24.0070   75.8812   -0.9463 H       1  UNL1        0.2105
     15 N          22.1122   74.3264    3.3147 N.ar    1  UNL1       -0.2551
     16 C          20.9669   74.5188    3.9926 C.ar    1  UNL1        0.3323
     17 N          20.9302   74.4085    5.3336 N.ar    1  UNL1       -0.2743
     18 C          22.0490   74.1116    6.0223 C.ar    1  UNL1        0.2626
     19 C          23.2639   73.9120    5.3220 C.ar    1  UNL1        0.0795
     20 C          23.2718   74.0244    3.9767 C.ar    1  UNL1        0.0869
     21 O          19.9495   74.7867    3.3850 O.2     1  UNL1       -0.2464
     22 O          22.0179   74.0163    7.2366 O.2     1  UNL1       -0.2670
     23 H          20.0940   74.5464    5.8063 H       1  UNL1        0.1734
     24 O          19.7000   71.3028   -1.9372 O.3     1  UNL1       -0.2703
     25 P          18.7616   70.3829   -2.8663 P.3     1  UNL1        0.2208
     26 O          18.8927   68.9685   -2.4524 O.2     1  UNL1       -0.5170
     27 O          17.2279   70.8482   -2.7071 O.3     1  UNL1       -0.4371
     28 O          19.2110   70.5369   -4.4040 O.3     1  UNL1       -0.2858
     29 C          18.6570   71.7653   -4.8772 C.3     1  UNL1        0.2704
     30 C          17.8793   71.5088   -6.1690 C.3     1  UNL1        0.1967
     31 C          18.8273   70.9064   -7.2105 C.3     1  UNL1        0.1715
     32 C          20.0456   71.8256   -7.3540 C.3     1  UNL1        0.1694
     33 C          20.6606   72.0565   -5.9714 C.3     1  UNL1        0.1761
     34 O          16.8089   70.5985   -5.9106 O.3     1  UNL1       -0.3775
     35 O          18.1542   70.7977   -8.4665 O.3     1  UNL1       -0.3794
     36 O          19.6385   73.0741   -7.9158 O.3     1  UNL1       -0.3794
     37 O          19.7089   72.6959   -5.1220 O.3     1  UNL1       -0.3258
     38 H          16.2430   71.0147   -5.2462 H       1  UNL1        0.2106
     39 H          17.3914   70.2226   -8.3263 H       1  UNL1        0.2105
     40 H          19.2533   72.8798   -8.7801 H       1  UNL1        0.2105
     41 C          21.8985   72.9457   -6.1079 C.3     1  UNL1        0.1693
     42 O          22.6230   72.5753   -7.2822 O.3     1  UNL1       -0.3794
     43 H          23.3929   73.1584   -7.3316 H       1  UNL1        0.2105
@<TRIPOS>BOND
     1    15    16   ar
     2    15    20   ar
     3    15     6    1
     4    16    17   ar
     5    16    21    2
     6    17    18   ar
     7    17    23    1
     8    18    19   ar
     9    18    22    2
    10    19    20   ar
    11     6     7    1
    12     6    11    1
    13     7     8    1
    14     7     9    1
    15     8    13    1
    16     9    10    1
    17     9    12    1
    18    10    11    1
    19    10     5    1
    20    12    14    1
    21     5     4    1
    22     4     1    1
    23     1     2    2
    24     1     3    1
    25     1    24    1
    26    24    25    1
    27    25    26    2
    28    25    27    1
    29    25    28    1
    30    28    29    1
    31    29    30    1
    32    29    37    1
    33    30    31    1
    34    30    34    1
    35    31    32    1
    36    31    35    1
    37    32    33    1
    38    32    36    1
    39    33    41    1
    40    33    37    1
    41    41    42    1
    42    34    38    1
    43    35    39    1
    44    36    40    1
    45    42    43    1
@<TRIPOS>MOLECULE
GDU
 43 45 0 0 0
SMALL
GASTEIGER

@<TRIPOS>ATOM
      1 P          18.6841   72.4177   -2.4482 P.3     1  UNL1        0.2189
      2 O          17.3001   72.1740   -1.9846 O.2     1  UNL1       -0.5170
      3 O          18.7693   73.8671   -3.1445 O.3     1  UNL1       -0.4371
      4 O          19.6880   72.3655   -1.1928 O.3     1  UNL1       -0.3112
      5 C          20.7611   73.2624   -1.4836 C.3     1  UNL1        0.1811
      6 C          22.8899   72.4342    1.2930 C.3     1  UNL1        0.2383
      7 C          22.1444   71.1148    0.9672 C.3     1  UNL1        0.1895
      8 O          22.9557   69.9801    1.2796 O.3     1  UNL1       -0.3779
      9 C          21.9264   71.2343   -0.5636 C.3     1  UNL1        0.1713
     10 C          22.0496   72.7438   -0.8425 C.3     1  UNL1        0.1764
     11 O          22.2652   73.3987    0.4196 O.3     1  UNL1       -0.3308
     12 O          22.9317   70.5046   -1.2698 O.3     1  UNL1       -0.3794
     13 H          22.4362   69.1956    1.0551 H       1  UNL1        0.2106
     14 H          22.8408   69.5781   -1.0088 H       1  UNL1        0.2105
     15 N          22.6954   72.8064    2.6954 N.ar    1  UNL1       -0.2551
     16 C          21.5647   72.4491    3.3295 C.ar    1  UNL1        0.3323
     17 N          21.3627   72.7756    4.6196 N.ar    1  UNL1       -0.2743
     18 C          22.2912   73.4781    5.2967 C.ar    1  UNL1        0.2626
     19 C          23.4847   73.8662    4.6400 C.ar    1  UNL1        0.0795
     20 C          23.6637   73.5220    3.3469 C.ar    1  UNL1        0.0869
     21 O          20.7182   71.8148    2.7319 O.2     1  UNL1       -0.2464
     22 O          22.1071   73.7782    6.4631 O.2     1  UNL1       -0.2670
     23 H          20.5426   72.5058    5.0628 H       1  UNL1        0.1734
     24 O          19.0984   71.2858   -3.5158 O.3     1  UNL1       -0.2703
     25 P          17.8249   71.0587   -4.4731 P.3     1  UNL1        0.2208
     26 O          17.0859   69.8548   -4.0333 O.2     1  UNL1       -0.5170
     27 O          16.8559   72.3426   -4.3904 O.3     1  UNL1       -0.4371
     28 O          18.3218   70.8599   -5.9909 O.3     1  UNL1       -0.2858
     29 C          18.1288   72.1081   -6.6576 C.3     1  UNL1        0.2704
     30 C          17.8662   71.8566   -8.1432 C.3     1  UNL1        0.1967
     31 C          19.0591   71.1035   -8.7399 C.3     1  UNL1        0.1715
     32 C          20.3392   71.8867   -8.4273 C.3     1  UNL1        0.1694
     33 C          20.4152   72.1344   -6.9187 C.3     1  UNL1        0.1761
     34 O          16.6804   71.0740   -8.2939 O.3     1  UNL1       -0.3775
     35 O          18.8963   70.9903  -10.1552 O.3     1  UNL1       -0.3794
     36 O          20.3169   73.1351   -9.1208 O.3     1  UNL1       -0.3794
     37 O          19.2949   72.9134   -6.5017 O.3     1  UNL1       -0.3258
     38 H          15.9587   71.5822   -7.8990 H       1  UNL1        0.2106
     39 H          18.0760   70.5032  -10.3045 H       1  UNL1        0.2105
     40 H          20.2630   72.9307  -10.0634 H       1  UNL1        0.2105
     41 C          21.7073   72.8863   -6.5915 C.3     1  UNL1        0.1693
     42 O          22.7074   72.5553   -7.5566 O.3     1  UNL1       -0.3794
     43 H          23.5032   73.0491   -7.3155 H       1  UNL1        0.2105
@<TRIPOS>BOND
     1    15    16   ar
     2    15    20   ar
     3    15     6    1
     4    16    17   ar
     5    16    21    2
     6    17    18   ar
     7    17    23    1
     8    18    19   ar
     9    18    22    2
    10    19    20   ar
    11     6     7    1
    12     6    11    1
    13     7     8    1
    14     7     9    1
    15     8    13    1
    16     9    10    1
    17     9    12    1
    18    10    11    1
    19    10     5    1
    20    12    14    1
    21     5     4    1
    22     4     1    1
    23     1     2    2
    24     1     3    1
    25     1    24    1
    26    24    25    1
    27    25    26    2
    28    25    27    1
    29    25    28    1
    30    28    29    1
    31    29    30    1
    32    29    37    1
    33    30    31    1
    34    30    34    1
    35    31    32    1
    36    31    35    1
    37    32    33    1
    38    32    36    1
    39    33    41    1
    40    33    37    1
    41    41    42    1
    42    34    38    1
    43    35    39    1
    44    36    40    1
    45    42    43    1
@<TRIPOS>MOLECULE
GDU
 43 45 0 0 0
SMALL
GASTEIGER

@<TRIPOS>ATOM
      1 P          21.3566   72.9714   -0.9779 P.3     1  UNL1        0.2189
      2 O          22.5644   72.7964   -1.8147 O.2     1  UNL1       -0.5170
      3 O          20.7770   74.4605   -1.1771 O.3     1  UNL1       -0.4371
      4 O          20.2408   71.8984   -1.4142 O.3     1  UNL1       -0.3112
      5 C          20.4012   71.6818   -2.8170 C.3     1  UNL1        0.1811
      6 C          18.1474   71.2034   -5.5772 C.3     1  UNL1        0.2383
      7 C          18.0692   69.8782   -4.7768 C.3     1  UNL1        0.1895
      8 O          16.7739   69.2856   -4.8969 O.3     1  UNL1       -0.3779
      9 C          18.3245   70.3600   -3.3250 C.3     1  UNL1        0.1713
     10 C          19.0327   71.7163   -3.4999 C.3     1  UNL1        0.1764
     11 O          19.1966   71.9377   -4.9113 O.3     1  UNL1       -0.3308
     12 O          17.0880   70.5201   -2.6269 O.3     1  UNL1       -0.3794
     13 H          16.7918   68.4688   -4.3788 H       1  UNL1        0.2106
     14 H          16.6659   69.6506   -2.6020 H       1  UNL1        0.2105
     15 N          18.5046   70.9450   -6.9731 N.ar    1  UNL1       -0.2551
     16 C          17.5381   70.6894   -7.8725 C.ar    1  UNL1        0.3323
     17 N          17.8393   70.4521   -9.1627 N.ar    1  UNL1       -0.2743
     18 C          19.1220   70.4573   -9.5736 C.ar    1  UNL1        0.2626
     19 C          20.1510   70.7193   -8.6362 C.ar    1  UNL1        0.0795
     20 C          19.8208   70.9583   -7.3492 C.ar    1  UNL1        0.0869
     21 O          16.3764   70.6818   -7.5168 O.2     1  UNL1       -0.2464
     22 O          19.3960   70.2379  -10.7403 O.2     1  UNL1       -0.2670
     23 H          17.1287   70.2736   -9.7991 H       1  UNL1        0.1734
     24 O          21.7406   72.7492    0.5699 O.3     1  UNL1       -0.2703
     25 P          22.0711   74.2005    1.1818 P.3     1  UNL1        0.2208
     26 O          22.9900   74.9210    0.2731 O.2     1  UNL1       -0.5170
     27 O          20.7055   75.0399    1.3394 O.3     1  UNL1       -0.4371
     28 O          22.7647   74.0308    2.6240 O.3     1  UNL1       -0.2858
     29 C          23.0205   75.3459    3.1188 C.3     1  UNL1        0.2704
     30 C          24.4996   75.4726    3.4870 C.3     1  UNL1        0.1967
     31 C          24.8417   74.4202    4.5462 C.3     1  UNL1        0.1715
     32 C          23.8631   74.5672    5.7169 C.3     1  UNL1        0.1694
     33 C          22.4312   74.5071    5.1793 C.3     1  UNL1        0.1761
     34 O          25.3021   75.2617    2.3239 O.3     1  UNL1       -0.3775
     35 O          26.1794   74.6204    5.0074 O.3     1  UNL1       -0.3794
     36 O          24.0820   75.8194    6.3682 O.3     1  UNL1       -0.3794
     37 O          22.2131   75.5843    4.2694 O.3     1  UNL1       -0.3258
     38 H          25.0486   75.9401    1.6833 H       1  UNL1        0.2106
     39 H          26.7568   74.5311    4.2387 H       1  UNL1        0.2105
     40 H          24.9948   75.8146    6.6844 H       1  UNL1        0.2105
     41 C          21.4456   74.6186    6.3447 C.3     1  UNL1        0.1693
     42 O          22.0357   74.0629    7.5212 O.3     1  UNL1       -0.3794
     43 H          21.3844   74.1533    8.2304 H       1  UNL1        0.2105
@<TRIPOS>BOND
     1    15    16   ar
     2    15    20   ar
     3    15     6    1
     4    16    17   ar
     5    16    21    2
     6    17    18   ar
     7    17    23    1
     8    18    19   ar
     9    18    22    2
    10    19    20   ar
    11     6     7    1
    12     6    11    1
    13     7     8    1
    14     7     9    1
    15     8    13    1
    16     9    10    1
    17     9    12    1
    18    10    11    1
    19    10     5    1
    20    12    14    1
    21     5     4    1
    22     4     1    1
    23     1     2    2
    24     1     3    1
    25     1    24    1
    26    24    25    1
    27    25    26    2
    28    25    27    1
    29    25    28    1
    30    28    29    1
    31    29    30    1
    32    29    37    1
    33    30    31    1
    34    30    34    1
    35    31    32    1
    36    31    35    1
    37    32    33    1
    38    32    36    1
    39    33    41    1
    40    33    37    1
    41    41    42    1
    42    34    38    1
    43    35    39    1
    44    36    40    1
    45    42    43    1
@<TRIPOS>MOLECULE
GDU
 43 45 0 0 0
SMALL
GASTEIGER

@<TRIPOS>ATOM
      1 P          22.8751   72.2275   -3.7281 P.3     1  UNL1        0.2189
      2 O          24.0106   73.0850   -4.1341 O.2     1  UNL1       -0.5170
      3 O          23.4305   70.7961   -3.2425 O.3     1  UNL1       -0.4371
      4 O          22.0758   72.9301   -2.5222 O.3     1  UNL1       -0.3112
      5 C          22.6360   72.4294   -1.3073 C.3     1  UNL1        0.1811
      6 C          21.4167   73.3675    1.9424 C.3     1  UNL1        0.2383
      7 C          20.9602   74.5176    1.0087 C.3     1  UNL1        0.1895
      8 O          19.7366   75.0943    1.4707 O.3     1  UNL1       -0.3779
      9 C          20.7494   73.7783   -0.3382 C.3     1  UNL1        0.1713
     10 C          21.5873   72.4941   -0.1954 C.3     1  UNL1        0.1764
     11 O          22.2370   72.5441    1.0866 O.3     1  UNL1       -0.3308
     12 O          19.3679   73.4641   -0.5247 O.3     1  UNL1       -0.3794
     13 H          19.5089   75.8000    0.8494 H       1  UNL1        0.2106
     14 H          18.8901   74.3043   -0.5470 H       1  UNL1        0.2105
     15 N          22.2016   73.8899    3.0621 N.ar    1  UNL1       -0.2551
     16 C          23.3594   74.5309    2.8232 C.ar    1  UNL1        0.3323
     17 N          24.0983   75.0239    3.8345 N.ar    1  UNL1       -0.2743
     18 C          23.6921   74.8732    5.1098 C.ar    1  UNL1        0.2626
     19 C          22.4775   74.1952    5.3769 C.ar    1  UNL1        0.0795
     20 C          21.7537   73.7144    4.3438 C.ar    1  UNL1        0.0869
     21 O          23.7385   74.6749    1.6780 O.2     1  UNL1       -0.2464
     22 O          24.3627   75.3150    6.0262 O.2     1  UNL1       -0.2670
     23 H          24.9292   75.4875    3.6435 H       1  UNL1        0.1734
     24 O          21.8854   72.0205   -4.9811 O.3     1  UNL1       -0.2703
     25 P          21.5342   73.4862   -5.5454 P.3     1  UNL1        0.2208
     26 O          21.1714   74.3744   -4.4190 O.2     1  UNL1       -0.5170
     27 O          22.8173   74.0879   -6.3108 O.3     1  UNL1       -0.4371
     28 O          20.2977   73.3857   -6.5706 O.3     1  UNL1       -0.2858
     29 C          20.0011   71.9976   -6.7281 C.3     1  UNL1        0.2704
     30 C          19.9712   71.6491   -8.2171 C.3     1  UNL1        0.1967
     31 C          18.9109   72.5107   -8.9097 C.3     1  UNL1        0.1715
     32 C          17.5787   72.3355   -8.1719 C.3     1  UNL1        0.1694
     33 C          17.7899   72.6342   -6.6855 C.3     1  UNL1        0.1761
     34 O          21.2521   71.9073   -8.7949 O.3     1  UNL1       -0.3775
     35 O          18.7677   72.0950  -10.2695 O.3     1  UNL1       -0.3794
     36 O          17.1158   70.9941   -8.3336 O.3     1  UNL1       -0.3794
     37 O          18.7340   71.7144   -6.1392 O.3     1  UNL1       -0.3258
     38 H          21.8876   71.3505   -8.3248 H       1  UNL1        0.2106
     39 H          19.6292   72.2108  -10.6897 H       1  UNL1        0.2105
     40 H          17.0027   70.8494   -9.2821 H       1  UNL1        0.2105
     41 C          16.4578   72.4955   -5.9450 C.3     1  UNL1        0.1693
     42 O          16.3118   71.1538   -5.4763 O.3     1  UNL1       -0.3794
     43 H          15.4625   71.1090   -5.0160 H       1  UNL1        0.2105
@<TRIPOS>BOND
     1    15    16   ar
     2    15    20   ar
     3    15     6    1
     4    16    17   ar
     5    16    21    2
     6    17    18   ar
     7    17    23    1
     8    18    19   ar
     9    18    22    2
    10    19    20   ar
    11     6     7    1
    12     6    11    1
    13     7     8    1
    14     7     9    1
    15     8    13    1
    16     9    10    1
    17     9    12    1
    18    10    11    1
    19    10     5    1
    20    12    14    1
    21     5     4    1
    22     4     1    1
    23     1     2    2
    24     1     3    1
    25     1    24    1
    26    24    25    1
    27    25    26    2
    28    25    27    1
    29    25    28    1
    30    28    29    1
    31    29    30    1
    32    29    37    1
    33    30    31    1
    34    30    34    1
    35    31    32    1
    36    31    35    1
    37    32    33    1
    38    32    36    1
    39    33    41    1
    40    33    37    1
    41    41    42    1
    42    34    38    1
    43    35    39    1
    44    36    40    1
    45    42    43    1
@<TRIPOS>MOLECULE
GDU
 43 45 0 0 0
SMALL
GASTEIGER

@<TRIPOS>ATOM
      1 P          22.5277   71.8738   -3.5849 P.3     1  UNL1        0.2189
      2 O          23.4472   70.7686   -3.2347 O.2     1  UNL1       -0.5170
      3 O          21.0282   71.3023   -3.7183 O.3     1  UNL1       -0.4371
      4 O          22.5738   72.9960   -2.4337 O.3     1  UNL1       -0.3112
      5 C          21.6269   72.6063   -1.4377 C.3     1  UNL1        0.1811
      6 C          22.7155   73.2330    1.9312 C.3     1  UNL1        0.2383
      7 C          21.3972   72.4332    2.0906 C.3     1  UNL1        0.1895
      8 O          21.4230   71.6393    3.2790 O.3     1  UNL1       -0.3779
      9 C          21.4066   71.5359    0.8257 C.3     1  UNL1        0.1713
     10 C          22.3611   72.2614   -0.1407 C.3     1  UNL1        0.1764
     11 O          22.7972   73.4678    0.5093 O.3     1  UNL1       -0.3308
     12 O          21.8993   70.2323    1.1416 O.3     1  UNL1       -0.3794
     13 H          20.5783   71.1695    3.3189 H       1  UNL1        0.2106
     14 H          21.2934   69.8541    1.7931 H       1  UNL1        0.2105
     15 N          22.6437   74.5004    2.6600 N.ar    1  UNL1       -0.2551
     16 C          23.5060   74.7426    3.6631 C.ar    1  UNL1        0.3323
     17 N          23.4636   75.9013    4.3468 N.ar    1  UNL1       -0.2743
     18 C          22.5449   76.8378    4.0415 C.ar    1  UNL1        0.2626
     19 C          21.6265   76.5941    2.9911 C.ar    1  UNL1        0.0795
     20 C          21.6938   75.4253    2.3188 C.ar    1  UNL1        0.0869
     21 O          24.3406   73.9075    3.9497 O.2     1  UNL1       -0.2464
     22 O          22.5027   77.8849    4.6629 O.2     1  UNL1       -0.2670
     23 H          24.0964   76.0611    5.0650 H       1  UNL1        0.1734
     24 O          22.9800   72.5228   -4.9873 O.3     1  UNL1       -0.2703
     25 P          21.6997   73.3001   -5.5762 P.3     1  UNL1        0.2208
     26 O          21.0524   74.0743   -4.4942 O.2     1  UNL1       -0.5170
     27 O          22.1719   74.3031   -6.7446 O.3     1  UNL1       -0.4371
     28 O          20.6527   72.2350   -6.1756 O.3     1  UNL1       -0.2858
     29 C          19.4679   72.9598   -6.5081 C.3     1  UNL1        0.2704
     30 C          18.2629   72.3030   -5.8328 C.3     1  UNL1        0.1967
     31 C          18.1580   70.8494   -6.3045 C.3     1  UNL1        0.1715
     32 C          18.1366   70.8318   -7.8371 C.3     1  UNL1        0.1694
     33 C          19.3533   71.5991   -8.3606 C.3     1  UNL1        0.1761
     34 O          18.4319   72.3366   -4.4145 O.3     1  UNL1       -0.3775
     35 O          16.9555   70.2660   -5.7984 O.3     1  UNL1       -0.3794
     36 O          16.9376   71.4507   -8.3053 O.3     1  UNL1       -0.3794
     37 O          19.2917   72.9557   -7.9229 O.3     1  UNL1       -0.3258
     38 H          18.5004   73.2679   -4.1637 H       1  UNL1        0.2106
     39 H          17.0072   70.3094   -4.8352 H       1  UNL1        0.2105
     40 H          16.2004   70.9392   -7.9474 H       1  UNL1        0.2105
     41 C          19.3601   71.5584   -9.8904 C.3     1  UNL1        0.1693
     42 O          18.7336   70.3545  -10.3369 O.3     1  UNL1       -0.3794
     43 H          18.7578   70.3682  -11.3036 H       1  UNL1        0.2105
@<TRIPOS>BOND
     1    15    16   ar
     2    15    20   ar
     3    15     6    1
     4    16    17   ar
     5    16    21    2
     6    17    18   ar
     7    17    23    1
     8    18    19   ar
     9    18    22    2
    10    19    20   ar
    11     6     7    1
    12     6    11    1
    13     7     8    1
    14     7     9    1
    15     8    13    1
    16     9    10    1
    17     9    12    1
    18    10    11    1
    19    10     5    1
    20    12    14    1
    21     5     4    1
    22     4     1    1
    23     1     2    2
    24     1     3    1
    25     1    24    1
    26    24    25    1
    27    25    26    2
    28    25    27    1
    29    25    28    1
    30    28    29    1
    31    29    30    1
    32    29    37    1
    33    30    31    1
    34    30    34    1
    35    31    32    1
    36    31    35    1
    37    32    33    1
    38    32    36    1
    39    33    41    1
    40    33    37    1
    41    41    42    1
    42    34    38    1
    43    35    39    1
    44    36    40    1
    45    42    43    1
@<TRIPOS>MOLECULE
GDU
 43 45 0 0 0
SMALL
GASTEIGER

@<TRIPOS>ATOM
      1 P          19.5478   70.7759   -4.0965 P.3     1  UNL1        0.2189
      2 O          19.7023   72.2070   -3.7534 O.2     1  UNL1       -0.5170
      3 O          18.4007   70.1237   -3.1736 O.3     1  UNL1       -0.4371
      4 O          19.1349   70.6364   -5.6447 O.3     1  UNL1       -0.3112
      5 C          17.7346   70.3560   -5.6758 C.3     1  UNL1        0.1811
      6 C          16.6775   72.6924   -8.1960 C.3     1  UNL1        0.2383
      7 C          18.1565   72.3864   -8.5449 C.3     1  UNL1        0.1895
      8 O          18.3777   72.4792   -9.9541 O.3     1  UNL1       -0.3779
      9 C          18.3095   70.9225   -8.0562 C.3     1  UNL1        0.1713
     10 C          17.1650   70.7453   -7.0412 C.3     1  UNL1        0.1764
     11 O          16.4778   72.0048   -6.9426 O.3     1  UNL1       -0.3308
     12 O          18.1634   70.0132   -9.1488 O.3     1  UNL1       -0.3794
     13 H          19.3123   72.2789  -10.1034 H       1  UNL1        0.2106
     14 H          18.8715   70.2129   -9.7760 H       1  UNL1        0.2105
     15 N          16.4710   74.1324   -8.0328 N.ar    1  UNL1       -0.2551
     16 C          15.2953   74.6816   -8.3854 C.ar    1  UNL1        0.3323
     17 N          15.0784   76.0024   -8.2423 N.ar    1  UNL1       -0.2743
     18 C          16.0451   76.8007   -7.7500 C.ar    1  UNL1        0.2626
     19 C          17.2906   76.2370   -7.3797 C.ar    1  UNL1        0.0795
     20 C          17.4800   74.9088   -7.5297 C.ar    1  UNL1        0.0869
     21 O          14.4136   73.9741   -8.8306 O.2     1  UNL1       -0.2464
     22 O          15.8514   77.9971   -7.6245 O.2     1  UNL1       -0.2670
     23 H          14.2223   76.3812   -8.4980 H       1  UNL1        0.1734
     24 O          20.9408   70.0102   -3.8401 O.3     1  UNL1       -0.2703
     25 P          21.9571   71.0883   -3.2117 P.3     1  UNL1        0.2208
     26 O          23.3241   70.5226   -3.1893 O.2     1  UNL1       -0.5170
     27 O          21.9446   72.4248   -4.1105 O.3     1  UNL1       -0.4371
     28 O          21.4994   71.4479   -1.7112 O.3     1  UNL1       -0.2858
     29 C          22.6748   71.4180   -0.9005 C.3     1  UNL1        0.2704
     30 C          22.3005   71.0053    0.5239 C.3     1  UNL1        0.1967
     31 C          21.2837   72.0059    1.0820 C.3     1  UNL1        0.1715
     32 C          21.8600   73.4195    0.9426 C.3     1  UNL1        0.1694
     33 C          22.2661   73.6499   -0.5151 C.3     1  UNL1        0.1761
     34 O          21.7273   69.6967    0.5081 O.3     1  UNL1       -0.3775
     35 O          21.0352   71.7199    2.4600 O.3     1  UNL1       -0.3794
     36 O          23.0023   73.5554    1.7891 O.3     1  UNL1       -0.3794
     37 O          23.2743   72.7115   -0.8880 O.3     1  UNL1       -0.3258
     38 H          22.3978   69.1029    0.1438 H       1  UNL1        0.2106
     39 H          20.6865   70.8204    2.5007 H       1  UNL1        0.2105
     40 H          22.7011   73.3968    2.6933 H       1  UNL1        0.2105
     41 C          22.8114   75.0711   -0.6723 C.3     1  UNL1        0.1693
     42 O          24.2209   75.0681   -0.4397 O.3     1  UNL1       -0.3794
     43 H          24.5246   75.9798   -0.5489 H       1  UNL1        0.2105
@<TRIPOS>BOND
     1    15    16   ar
     2    15    20   ar
     3    15     6    1
     4    16    17   ar
     5    16    21    2
     6    17    18   ar
     7    17    23    1
     8    18    19   ar
     9    18    22    2
    10    19    20   ar
    11     6     7    1
    12     6    11    1
    13     7     8    1
    14     7     9    1
    15     8    13    1
    16     9    10    1
    17     9    12    1
    18    10    11    1
    19    10     5    1
    20    12    14    1
    21     5     4    1
    22     4     1    1
    23     1     2    2
    24     1     3    1
    25     1    24    1
    26    24    25    1
    27    25    26    2
    28    25    27    1
    29    25    28    1
    30    28    29    1
    31    29    30    1
    32    29    37    1
    33    30    31    1
    34    30    34    1
    35    31    32    1
    36    31    35    1
    37    32    33    1
    38    32    36    1
    39    33    41    1
    40    33    37    1
    41    41    42    1
    42    34    38    1
    43    35    39    1
    44    36    40    1
    45    42    43    1
@<TRIPOS>MOLECULE
GDU
 43 45 0 0 0
SMALL
GASTEIGER

@<TRIPOS>ATOM
      1 P          22.4200   70.4280    0.2094 P.3     1  UNL1        0.2189
      2 O          21.5673   69.2608    0.5252 O.2     1  UNL1       -0.5170
      3 O          23.8932   69.9216   -0.1983 O.3     1  UNL1       -0.4371
      4 O          21.7763   71.2478   -1.0155 O.3     1  UNL1       -0.3112
      5 C          21.3067   70.2825   -1.9580 C.3     1  UNL1        0.1811
      6 C          18.6819   71.5001   -4.0923 C.3     1  UNL1        0.2383
      7 C          18.7852   69.9897   -4.4255 C.3     1  UNL1        0.1895
      8 O          17.5142   69.4659   -4.8172 O.3     1  UNL1       -0.3779
      9 C          19.2373   69.3881   -3.0694 C.3     1  UNL1        0.1713
     10 C          19.8500   70.5830   -2.3155 C.3     1  UNL1        0.1764
     11 O          19.7869   71.7225   -3.1906 O.3     1  UNL1       -0.3308
     12 O          18.1157   68.8610   -2.3580 O.3     1  UNL1       -0.3794
     13 H          17.6469   68.5273   -5.0101 H       1  UNL1        0.2106
     14 H          17.7412   68.1584   -2.9065 H       1  UNL1        0.2105
     15 N          18.8333   72.3091   -5.3029 N.ar    1  UNL1       -0.2551
     16 C          20.0588   72.5215   -5.8141 C.ar    1  UNL1        0.3323
     17 N          20.2251   73.2585   -6.9281 N.ar    1  UNL1       -0.2743
     18 C          19.1611   73.8063   -7.5462 C.ar    1  UNL1        0.2626
     19 C          17.8647   73.5958   -7.0157 C.ar    1  UNL1        0.0795
     20 C          17.7259   72.8490   -5.8998 C.ar    1  UNL1        0.0869
     21 O          21.0280   72.0334   -5.2679 O.2     1  UNL1       -0.2464
     22 O          19.3111   74.4776   -8.5519 O.2     1  UNL1       -0.2670
     23 H          21.1164   73.3980   -7.2857 H       1  UNL1        0.1734
     24 O          22.5210   71.3830    1.5018 O.3     1  UNL1       -0.2703
     25 P          22.2953   72.8909    0.9867 P.3     1  UNL1        0.2208
     26 O          23.1938   73.1607   -0.1574 O.2     1  UNL1       -0.5170
     27 O          20.7644   73.0752    0.5211 O.3     1  UNL1       -0.4371
     28 O          22.6198   73.9210    2.1798 O.3     1  UNL1       -0.2858
     29 C          22.8758   73.1377    3.3462 C.3     1  UNL1        0.2704
     30 C          21.6654   73.2028    4.2790 C.3     1  UNL1        0.1967
     31 C          21.4043   74.6645    4.6557 C.3     1  UNL1        0.1715
     32 C          22.6970   75.2631    5.2216 C.3     1  UNL1        0.1694
     33 C          23.8295   75.0432    4.2156 C.3     1  UNL1        0.1761
     34 O          20.5199   72.6662    3.6149 O.3     1  UNL1       -0.3775
     35 O          20.3709   74.7292    5.6407 O.3     1  UNL1       -0.3794
     36 O          23.0185   74.6237    6.4577 O.3     1  UNL1       -0.3794
     37 O          24.0290   73.6449    4.0135 O.3     1  UNL1       -0.3258
     38 H          20.7313   71.7497    3.3906 H       1  UNL1        0.2106
     39 H          19.5836   74.3324    5.2469 H       1  UNL1        0.2105
     40 H          22.2773   74.7831    7.0564 H       1  UNL1        0.2105
     41 C          25.1178   75.6678    4.7561 C.3     1  UNL1        0.1693
     42 O          24.8021   76.5535    5.8316 O.3     1  UNL1       -0.3794
     43 H          25.6389   76.9245    6.1435 H       1  UNL1        0.2105
@<TRIPOS>BOND
     1    15    16   ar
     2    15    20   ar
     3    15     6    1
     4    16    17   ar
     5    16    21    2
     6    17    18   ar
     7    17    23    1
     8    18    19   ar
     9    18    22    2
    10    19    20   ar
    11     6     7    1
    12     6    11    1
    13     7     8    1
    14     7     9    1
    15     8    13    1
    16     9    10    1
    17     9    12    1
    18    10    11    1
    19    10     5    1
    20    12    14    1
    21     5     4    1
    22     4     1    1
    23     1     2    2
    24     1     3    1
    25     1    24    1
    26    24    25    1
    27    25    26    2
    28    25    27    1
    29    25    28    1
    30    28    29    1
    31    29    30    1
    32    29    37    1
    33    30    31    1
    34    30    34    1
    35    31    32    1
    36    31    35    1
    37    32    33    1
    38    32    36    1
    39    33    41    1
    40    33    37    1
    41    41    42    1
    42    34    38    1
    43    35    39    1
    44    36    40    1
    45    42    43    1
@<TRIPOS>MOLECULE
GDU
 43 45 0 0 0
SMALL
GASTEIGER

@<TRIPOS>ATOM
      1 P          20.2716   70.3253   -2.6255 P.3     1  UNL1        0.2189
      2 O          19.9179   69.1239   -3.4135 O.2     1  UNL1       -0.5170
      3 O          18.9363   71.1620   -2.2941 O.3     1  UNL1       -0.4371
      4 O          20.9790   69.8776   -1.2522 O.3     1  UNL1       -0.3112
      5 C          21.8232   70.9576   -0.8503 C.3     1  UNL1        0.1811
      6 C          21.5938   73.3406    1.8322 C.3     1  UNL1        0.2383
      7 C          21.5830   74.2027    0.5440 C.3     1  UNL1        0.1895
      8 O          20.8207   75.3966    0.7357 O.3     1  UNL1       -0.3779
      9 C          20.8877   73.2597   -0.4722 C.3     1  UNL1        0.1713
     10 C          21.0715   71.8559    0.1337 C.3     1  UNL1        0.1764
     11 O          21.8372   72.0051    1.3418 O.3     1  UNL1       -0.3308
     12 O          19.5010   73.5846   -0.5873 O.3     1  UNL1       -0.3794
     13 H          20.8540   75.8857   -0.0983 H       1  UNL1        0.2106
     14 H          19.4524   74.4931   -0.9145 H       1  UNL1        0.2105
     15 N          22.6695   73.7644    2.7300 N.ar    1  UNL1       -0.2551
     16 C          22.6179   73.4376    4.0334 C.ar    1  UNL1        0.3323
     17 N          23.5957   73.8118    4.8794 N.ar    1  UNL1       -0.2743
     18 C          24.6425   74.5322    4.4328 C.ar    1  UNL1        0.2626
     19 C          24.7073   74.8887    3.0635 C.ar    1  UNL1        0.0795
     20 C          23.7153   74.4968    2.2360 C.ar    1  UNL1        0.0869
     21 O          21.6802   72.7876    4.4508 O.2     1  UNL1       -0.2464
     22 O          25.5257   74.8755    5.1988 O.2     1  UNL1       -0.2670
     23 H          23.5444   73.5634    5.8162 H       1  UNL1        0.1734
     24 O          21.2825   71.2454   -3.4763 O.3     1  UNL1       -0.2703
     25 P          20.3784   72.1652   -4.4389 P.3     1  UNL1        0.2208
     26 O          19.6032   73.1229   -3.6199 O.2     1  UNL1       -0.5170
     27 O          21.3298   72.9757   -5.4548 O.3     1  UNL1       -0.4371
     28 O          19.3685   71.2348   -5.2782 O.3     1  UNL1       -0.2858
     29 C          18.1595   71.9773   -5.4421 C.3     1  UNL1        0.2704
     30 C          16.9684   71.0177   -5.4397 C.3     1  UNL1        0.1967
     31 C          17.1405   70.0065   -6.5773 C.3     1  UNL1        0.1715
     32 C          17.3573   70.7739   -7.8864 C.3     1  UNL1        0.1694
     33 C          18.5211   71.7513   -7.7036 C.3     1  UNL1        0.1761
     34 O          16.9114   70.3287   -4.1894 O.3     1  UNL1       -0.3775
     35 O          15.9676   69.1966   -6.6813 O.3     1  UNL1       -0.3794
     36 O          16.1700   71.4943   -8.2202 O.3     1  UNL1       -0.3794
     37 O          18.2048   72.6896   -6.6762 O.3     1  UNL1       -0.3258
     38 H          16.8103   71.0029   -3.5037 H       1  UNL1        0.2106
     39 H          15.8644   68.7437   -5.8349 H       1  UNL1        0.2105
     40 H          15.4650   70.8412   -8.3196 H       1  UNL1        0.2105
     41 C          18.7682   72.4985   -9.0161 C.3     1  UNL1        0.1693
     42 O          18.5107   71.6247  -10.1165 O.3     1  UNL1       -0.3794
     43 H          18.6770   72.1329  -10.9224 H       1  UNL1        0.2105
@<TRIPOS>BOND
     1    15    16   ar
     2    15    20   ar
     3    15     6    1
     4    16    17   ar
     5    16    21    2
     6    17    18   ar
     7    17    23    1
     8    18    19   ar
     9    18    22    2
    10    19    20   ar
    11     6     7    1
    12     6    11    1
    13     7     8    1
    14     7     9    1
    15     8    13    1
    16     9    10    1
    17     9    12    1
    18    10    11    1
    19    10     5    1
    20    12    14    1
    21     5     4    1
    22     4     1    1
    23     1     2    2
    24     1     3    1
    25     1    24    1
    26    24    25    1
    27    25    26    2
    28    25    27    1
    29    25    28    1
    30    28    29    1
    31    29    30    1
    32    29    37    1
    33    30    31    1
    34    30    34    1
    35    31    32    1
    36    31    35    1
    37    32    33    1
    38    32    36    1
    39    33    41    1
    40    33    37    1
    41    41    42    1
    42    34    38    1
    43    35    39    1
    44    36    40    1
    45    42    43    1
