@<TRIPOS>MOLECULE
GDU
 43 45 0 0 0
SMALL
GASTEIGER

@<TRIPOS>ATOM
      1 P          22.1547   70.8672   -2.4789 P.3     1  UNL1        0.2189
      2 O          21.5515   69.6324   -1.9301 O.2     1  UNL1       -0.5170
      3 O          23.5358   70.5046   -3.2233 O.3     1  UNL1       -0.4371
      4 O          21.1394   71.5398   -3.5294 O.3     1  UNL1       -0.3112
      5 C          20.1653   72.2523   -2.7652 C.3     1  UNL1        0.1811
      6 C          17.9208   71.3234   -5.4160 C.3     1  UNL1        0.2383
      7 C          18.0126   70.0596   -4.5231 C.3     1  UNL1        0.1895
      8 O          16.7914   69.3177   -4.5624 O.3     1  UNL1       -0.3779
      9 C          18.2431   70.6714   -3.1167 C.3     1  UNL1        0.1713
     10 C          18.7872   72.0825   -3.4071 C.3     1  UNL1        0.1764
     11 O          18.8933   72.2178   -4.8349 O.3     1  UNL1       -0.3308
     12 O          17.0120   70.7415   -2.3945 O.3     1  UNL1       -0.3794
     13 H          16.9142   68.5480   -3.9894 H       1  UNL1        0.2106
     14 H          16.6930   69.8341   -2.2962 H       1  UNL1        0.2105
     15 N          18.2743   71.0062   -6.8006 N.ar    1  UNL1       -0.2551
     16 C          17.3055   70.7117   -7.6855 C.ar    1  UNL1        0.3323
     17 N          17.6033   70.4199   -8.9653 N.ar    1  UNL1       -0.2743
     18 C          18.8849   70.4086   -9.3797 C.ar    1  UNL1        0.2626
     19 C          19.9163   70.7112   -8.4572 C.ar    1  UNL1        0.0795
     20 C          19.5895   71.0045   -7.1807 C.ar    1  UNL1        0.0869
     21 O          16.1448   70.7183   -7.3265 O.2     1  UNL1       -0.2464
     22 O          19.1558   70.1399  -10.5368 O.2     1  UNL1       -0.2670
     23 H          16.8911   70.2139   -9.5915 H       1  UNL1        0.1734
     24 O          22.4486   71.8991   -1.2785 O.3     1  UNL1       -0.2703
     25 P          22.4252   71.0464    0.0862 P.3     1  UNL1        0.2208
     26 O          21.1111   70.3819    0.2299 O.2     1  UNL1       -0.5170
     27 O          23.5874   69.9323    0.0425 O.3     1  UNL1       -0.4371
     28 O          22.6710   72.0278    1.3378 O.3     1  UNL1       -0.2858
     29 C          21.9685   73.2397    1.0591 C.3     1  UNL1        0.2704
     30 C          22.9656   74.3954    0.9623 C.3     1  UNL1        0.1967
     31 C          23.7310   74.5058    2.2846 C.3     1  UNL1        0.1715
     32 C          22.7178   74.6126    3.4298 C.3     1  UNL1        0.1694
     33 C          21.7400   73.4383    3.3405 C.3     1  UNL1        0.1761
     34 O          23.8833   74.1478   -0.1044 O.3     1  UNL1       -0.3775
     35 O          24.5602   75.6696    2.2637 O.3     1  UNL1       -0.3794
     36 O          22.0034   75.8447    3.3224 O.3     1  UNL1       -0.3794
     37 O          21.0317   73.4947    2.1032 O.3     1  UNL1       -0.3258
     38 H          23.3584   74.0787   -0.9135 H       1  UNL1        0.2106
     39 H          25.1712   75.5647    1.5235 H       1  UNL1        0.2105
     40 H          22.6577   76.5534    3.3777 H       1  UNL1        0.2105
     41 C          20.7444   73.5165    4.5002 C.3     1  UNL1        0.1693
     42 O          21.3534   73.0011    5.6853 O.3     1  UNL1       -0.3794
     43 H          20.6951   73.0689    6.3905 H       1  UNL1        0.2105
@<TRIPOS>BOND
     1    15    16   ar
     2    15    20   ar
     3    15     6    1
     4    16    17   ar
     5    16    21    2
     6    17    18   ar
     7    17    23    1
     8    18    19   ar
     9    18    22    2
    10    19    20   ar
    11     6     7    1
    12     6    11    1
    13     7     8    1
    14     7     9    1
    15     8    13    1
    16     9    10    1
    17     9    12    1
    18    10    11    1
    19    10     5    1
    20    12    14    1
    21     5     4    1
    22     4     1    1
    23     1     2    2
    24     1     3    1
    25     1    24    1
    26    24    25    1
    27    25    26    2
    28    25    27    1
    29    25    28    1
    30    28    29    1
    31    29    30    1
    32    29    37    1
    33    30    31    1
    34    30    34    1
    35    31    32    1
    36    31    35    1
    37    32    33    1
    38    32    36    1
    39    33    41    1
    40    33    37    1
    41    41    42    1
    42    34    38    1
    43    35    39    1
    44    36    40    1
    45    42    43    1
@<TRIPOS>MOLECULE
GDU
 43 45 0 0 0
SMALL
GASTEIGER

@<TRIPOS>ATOM
      1 P          22.1267   70.8948   -2.5249 P.3     1  UNL1        0.2189
      2 O          21.4961   69.5808   -2.2695 O.2     1  UNL1       -0.5170
      3 O          23.5606   70.6752   -3.2239 O.3     1  UNL1       -0.4371
      4 O          21.1837   71.7633   -3.4961 O.3     1  UNL1       -0.3112
      5 C          20.1912   72.3750   -2.6707 C.3     1  UNL1        0.1811
      6 C          17.9443   71.4115   -5.3071 C.3     1  UNL1        0.2383
      7 C          18.0501   70.1539   -4.4070 C.3     1  UNL1        0.1895
      8 O          16.8350   69.4016   -4.4370 O.3     1  UNL1       -0.3779
      9 C          18.2809   70.7761   -3.0052 C.3     1  UNL1        0.1713
     10 C          18.8120   72.1899   -3.3062 C.3     1  UNL1        0.1764
     11 O          18.9116   72.3174   -4.7352 O.3     1  UNL1       -0.3308
     12 O          17.0521   70.8403   -2.2787 O.3     1  UNL1       -0.3794
     13 H          16.9664   68.6364   -3.8599 H       1  UNL1        0.2106
     14 H          16.7410   69.9309   -2.1737 H       1  UNL1        0.2105
     15 N          18.2951   71.0888   -6.6912 N.ar    1  UNL1       -0.2551
     16 C          17.3259   70.7757   -7.5691 C.ar    1  UNL1        0.3323
     17 N          17.6213   70.4785   -8.8483 N.ar    1  UNL1       -0.2743
     18 C          18.9008   70.4806   -9.2689 C.ar    1  UNL1        0.2626
     19 C          19.9328   70.8029   -8.3537 C.ar    1  UNL1        0.0795
     20 C          19.6084   71.1011   -7.0777 C.ar    1  UNL1        0.0869
     21 O          16.1670   70.7701   -7.2045 O.2     1  UNL1       -0.2464
     22 O          19.1696   70.2070  -10.4254 O.2     1  UNL1       -0.2670
     23 H          16.9087   70.2590   -9.4695 H       1  UNL1        0.1734
     24 O          22.3250   71.6740   -1.1299 O.3     1  UNL1       -0.2703
     25 P          21.8579   70.6685    0.0367 P.3     1  UNL1        0.2208
     26 O          20.8587   69.7192   -0.5014 O.2     1  UNL1       -0.5170
     27 O          23.1337   69.8514    0.5832 O.3     1  UNL1       -0.4371
     28 O          21.2046   71.5105    1.2427 O.3     1  UNL1       -0.2858
     29 C          22.2129   72.4022    1.7200 C.3     1  UNL1        0.2704
     30 C          22.0557   72.5870    3.2302 C.3     1  UNL1        0.1967
     31 C          20.6589   73.1441    3.5216 C.3     1  UNL1        0.1715
     32 C          20.4524   74.4114    2.6844 C.3     1  UNL1        0.1694
     33 C          20.7295   74.0874    1.2143 C.3     1  UNL1        0.1761
     34 O          22.2168   71.3278    3.8857 O.3     1  UNL1       -0.3775
     35 O          20.5484   73.4603    4.9109 O.3     1  UNL1       -0.3794
     36 O          21.3479   75.4304    3.1311 O.3     1  UNL1       -0.3794
     37 O          22.0824   73.6603    1.0622 O.3     1  UNL1       -0.3258
     38 H          23.1047   71.0121    3.6692 H       1  UNL1        0.2106
     39 H          20.6967   72.6395    5.3974 H       1  UNL1        0.2105
     40 H          21.1413   75.5971    4.0600 H       1  UNL1        0.2105
     41 C          20.4927   75.3381    0.3648 C.3     1  UNL1        0.1693
     42 O          21.6389   76.1876    0.4394 O.3     1  UNL1       -0.3794
     43 H          21.4497   76.9617   -0.1085 H       1  UNL1        0.2105
@<TRIPOS>BOND
     1    15    16   ar
     2    15    20   ar
     3    15     6    1
     4    16    17   ar
     5    16    21    2
     6    17    18   ar
     7    17    23    1
     8    18    19   ar
     9    18    22    2
    10    19    20   ar
    11     6     7    1
    12     6    11    1
    13     7     8    1
    14     7     9    1
    15     8    13    1
    16     9    10    1
    17     9    12    1
    18    10    11    1
    19    10     5    1
    20    12    14    1
    21     5     4    1
    22     4     1    1
    23     1     2    2
    24     1     3    1
    25     1    24    1
    26    24    25    1
    27    25    26    2
    28    25    27    1
    29    25    28    1
    30    28    29    1
    31    29    30    1
    32    29    37    1
    33    30    31    1
    34    30    34    1
    35    31    32    1
    36    31    35    1
    37    32    33    1
    38    32    36    1
    39    33    41    1
    40    33    37    1
    41    41    42    1
    42    34    38    1
    43    35    39    1
    44    36    40    1
    45    42    43    1
@<TRIPOS>MOLECULE
GDU
 43 45 0 0 0
SMALL
GASTEIGER

@<TRIPOS>ATOM
      1 P          22.8650   72.1170   -3.2253 P.3     1  UNL1        0.2189
      2 O          22.8379   72.6580   -1.8483 O.2     1  UNL1       -0.5170
      3 O          23.2878   70.5638   -3.1834 O.3     1  UNL1       -0.4371
      4 O          21.4057   72.2582   -3.8866 O.3     1  UNL1       -0.3112
      5 C          20.4615   72.2316   -2.8150 C.3     1  UNL1        0.1811
      6 C          18.1192   71.2122   -5.3452 C.3     1  UNL1        0.2383
      7 C          18.3521   69.9375   -4.4944 C.3     1  UNL1        0.1895
      8 O          17.1832   69.1150   -4.4777 O.3     1  UNL1       -0.3779
      9 C          18.6306   70.5314   -3.0890 C.3     1  UNL1        0.1713
     10 C          19.0595   71.9827   -3.3743 C.3     1  UNL1        0.1764
     11 O          19.0650   72.1575   -4.8018 O.3     1  UNL1       -0.3308
     12 O          17.4463   70.5006   -2.2900 O.3     1  UNL1       -0.3794
     13 H          17.3935   68.3425   -3.9346 H       1  UNL1        0.2106
     14 H          17.1955   69.5715   -2.1967 H       1  UNL1        0.2105
     15 N          18.4039   70.9516   -6.7573 N.ar    1  UNL1       -0.2551
     16 C          17.3985   70.6385   -7.5935 C.ar    1  UNL1        0.3323
     17 N          17.6327   70.3977   -8.8970 N.ar    1  UNL1       -0.2743
     18 C          18.8868   70.4573   -9.3848 C.ar    1  UNL1        0.2626
     19 C          19.9565   70.7803   -8.5144 C.ar    1  UNL1        0.0795
     20 C          19.6931   71.0213   -7.2125 C.ar    1  UNL1        0.0869
     21 O          16.2619   70.5814   -7.1681 O.2     1  UNL1       -0.2464
     22 O          19.1004   70.2348  -10.5635 O.2     1  UNL1       -0.2670
     23 H          16.8945   70.1773   -9.4871 H       1  UNL1        0.1734
     24 O          23.9352   72.9395   -4.1031 O.3     1  UNL1       -0.2703
     25 P          23.8618   74.4709   -3.6137 P.3     1  UNL1        0.2208
     26 O          22.4464   74.8926   -3.5245 O.2     1  UNL1       -0.5170
     27 O          24.5534   74.6049   -2.1653 O.3     1  UNL1       -0.4371
     28 O          24.6371   75.4095   -4.6662 O.3     1  UNL1       -0.2858
     29 C          23.6945   76.3750   -5.1341 C.3     1  UNL1        0.2704
     30 C          23.6847   76.3775   -6.6635 C.3     1  UNL1        0.1967
     31 C          25.0924   76.7061   -7.1705 C.3     1  UNL1        0.1715
     32 C          25.5549   78.0142   -6.5191 C.3     1  UNL1        0.1694
     33 C          25.4246   77.8867   -4.9993 C.3     1  UNL1        0.1761
     34 O          23.2905   75.0902   -7.1417 O.3     1  UNL1       -0.3775
     35 O          25.0678   76.8570   -8.5915 O.3     1  UNL1       -0.3794
     36 O          24.7427   79.0930   -6.9843 O.3     1  UNL1       -0.3794
     37 O          24.0588   77.6657   -4.6502 O.3     1  UNL1       -0.3258
     38 H          22.4043   74.9225   -6.7932 H       1  UNL1        0.2106
     39 H          24.7608   76.0176   -8.9568 H       1  UNL1        0.2105
     40 H          24.8514   79.1318   -7.9434 H       1  UNL1        0.2105
     41 C          25.9164   79.1757   -4.3370 C.3     1  UNL1        0.1693
     42 O          27.3055   79.0512   -4.0276 O.3     1  UNL1       -0.3794
     43 H          27.5756   79.8824   -3.6136 H       1  UNL1        0.2105
@<TRIPOS>BOND
     1    15    16   ar
     2    15    20   ar
     3    15     6    1
     4    16    17   ar
     5    16    21    2
     6    17    18   ar
     7    17    23    1
     8    18    19   ar
     9    18    22    2
    10    19    20   ar
    11     6     7    1
    12     6    11    1
    13     7     8    1
    14     7     9    1
    15     8    13    1
    16     9    10    1
    17     9    12    1
    18    10    11    1
    19    10     5    1
    20    12    14    1
    21     5     4    1
    22     4     1    1
    23     1     2    2
    24     1     3    1
    25     1    24    1
    26    24    25    1
    27    25    26    2
    28    25    27    1
    29    25    28    1
    30    28    29    1
    31    29    30    1
    32    29    37    1
    33    30    31    1
    34    30    34    1
    35    31    32    1
    36    31    35    1
    37    32    33    1
    38    32    36    1
    39    33    41    1
    40    33    37    1
    41    41    42    1
    42    34    38    1
    43    35    39    1
    44    36    40    1
    45    42    43    1
@<TRIPOS>MOLECULE
GDU
 43 45 0 0 0
SMALL
GASTEIGER

@<TRIPOS>ATOM
      1 P          21.4516   73.0559   -8.1763 P.3     1  UNL1        0.2189
      2 O          20.4497   73.9737   -7.5905 O.2     1  UNL1       -0.5170
      3 O          22.5084   72.6205   -7.0420 O.3     1  UNL1       -0.4371
      4 O          20.7115   71.7485   -8.7504 O.3     1  UNL1       -0.3112
      5 C          19.4227   72.1674   -9.2022 C.3     1  UNL1        0.1811
      6 C          17.9480   70.6348   -6.3033 C.3     1  UNL1        0.2383
      7 C          17.3353   72.0581   -6.3451 C.3     1  UNL1        0.1895
      8 O          16.0158   72.0616   -5.7953 O.3     1  UNL1       -0.3779
      9 C          17.3010   72.3524   -7.8674 C.3     1  UNL1        0.1713
     10 C          18.3400   71.3823   -8.4597 C.3     1  UNL1        0.1764
     11 O          18.9263   70.6579   -7.3644 O.3     1  UNL1       -0.3308
     12 O          16.0007   72.0886   -8.3981 O.3     1  UNL1       -0.3794
     13 H          15.6931   72.9719   -5.8506 H       1  UNL1        0.2106
     14 H          15.3877   72.6847   -7.9468 H       1  UNL1        0.2105
     15 N          18.5927   70.3861   -5.0128 N.ar    1  UNL1       -0.2551
     16 C          17.8953   69.8068   -4.0196 C.ar    1  UNL1        0.3323
     17 N          18.4654   69.5639   -2.8247 N.ar    1  UNL1       -0.2743
     18 C          19.7481   69.9084   -2.6007 C.ar    1  UNL1        0.2626
     19 C          20.4932   70.5246   -3.6357 C.ar    1  UNL1        0.0795
     20 C          19.8983   70.7528   -4.8259 C.ar    1  UNL1        0.0869
     21 O          16.7374   69.4901   -4.2070 O.2     1  UNL1       -0.2464
     22 O          20.2636   69.6933   -1.5179 O.2     1  UNL1       -0.2670
     23 H          17.9484   69.1411   -2.1206 H       1  UNL1        0.1734
     24 O          22.2280   73.8034   -9.3725 O.3     1  UNL1       -0.2703
     25 P          22.5097   75.3085   -8.8773 P.3     1  UNL1        0.2208
     26 O          21.2335   76.0549   -8.8176 O.2     1  UNL1       -0.5170
     27 O          23.1800   75.2749   -7.4131 O.3     1  UNL1       -0.4371
     28 O          23.5099   76.0353   -9.9075 O.3     1  UNL1       -0.2858
     29 C          24.4590   75.0539  -10.3266 C.3     1  UNL1        0.2704
     30 C          25.8677   75.5133   -9.9474 C.3     1  UNL1        0.1967
     31 C          26.1504   76.8606  -10.6191 C.3     1  UNL1        0.1715
     32 C          25.8925   76.7218  -12.1237 C.3     1  UNL1        0.1694
     33 C          24.4801   76.1721  -12.3380 C.3     1  UNL1        0.1761
     34 O          25.9591   75.6556   -8.5287 O.3     1  UNL1       -0.3775
     35 O          27.5121   77.2324  -10.3953 O.3     1  UNL1       -0.3794
     36 O          26.8499   75.8271  -12.6920 O.3     1  UNL1       -0.3794
     37 O          24.3698   74.8817  -11.7390 O.3     1  UNL1       -0.3258
     38 H          25.7672   74.7876   -8.1484 H       1  UNL1        0.2106
     39 H          27.6313   77.2961   -9.4392 H       1  UNL1        0.2105
     40 H          27.7219   76.2096  -12.5287 H       1  UNL1        0.2105
     41 C          24.1997   76.0618  -13.8384 C.3     1  UNL1        0.1693
     42 O          23.1669   76.9811  -14.1979 O.3     1  UNL1       -0.3794
     43 H          23.0215   76.8807  -15.1488 H       1  UNL1        0.2105
@<TRIPOS>BOND
     1    15    16   ar
     2    15    20   ar
     3    15     6    1
     4    16    17   ar
     5    16    21    2
     6    17    18   ar
     7    17    23    1
     8    18    19   ar
     9    18    22    2
    10    19    20   ar
    11     6     7    1
    12     6    11    1
    13     7     8    1
    14     7     9    1
    15     8    13    1
    16     9    10    1
    17     9    12    1
    18    10    11    1
    19    10     5    1
    20    12    14    1
    21     5     4    1
    22     4     1    1
    23     1     2    2
    24     1     3    1
    25     1    24    1
    26    24    25    1
    27    25    26    2
    28    25    27    1
    29    25    28    1
    30    28    29    1
    31    29    30    1
    32    29    37    1
    33    30    31    1
    34    30    34    1
    35    31    32    1
    36    31    35    1
    37    32    33    1
    38    32    36    1
    39    33    41    1
    40    33    37    1
    41    41    42    1
    42    34    38    1
    43    35    39    1
    44    36    40    1
    45    42    43    1
@<TRIPOS>MOLECULE
GDU
 43 45 0 0 0
SMALL
GASTEIGER

@<TRIPOS>ATOM
      1 P          21.8907   71.0026   -0.5015 P.3     1  UNL1        0.2189
      2 O          21.5951   69.9026    0.4431 O.2     1  UNL1       -0.5170
      3 O          22.7807   70.4392   -1.7195 O.3     1  UNL1       -0.4371
      4 O          20.5131   71.6020   -1.0758 O.3     1  UNL1       -0.3112
      5 C          20.5994   71.5453   -2.5006 C.3     1  UNL1        0.1811
      6 C          18.1659   71.2797   -5.1340 C.3     1  UNL1        0.2383
      7 C          18.0340   69.9508   -4.3468 C.3     1  UNL1        0.1895
      8 O          16.6935   69.4573   -4.4004 O.3     1  UNL1       -0.3779
      9 C          18.4050   70.3886   -2.9059 C.3     1  UNL1        0.1713
     10 C          19.2013   71.6917   -3.1041 C.3     1  UNL1        0.1764
     11 O          19.3023   71.9237   -4.5197 O.3     1  UNL1       -0.3308
     12 O          17.2247   70.6277   -2.1369 O.3     1  UNL1       -0.3794
     13 H          16.6794   68.6330   -3.8943 H       1  UNL1        0.2106
     14 H          16.7410   69.7914   -2.0987 H       1  UNL1        0.2105
     15 N          18.4245   71.0188   -6.5510 N.ar    1  UNL1       -0.2551
     16 C          17.3930   70.8468   -7.3964 C.ar    1  UNL1        0.3323
     17 N          17.6034   70.6092   -8.7046 N.ar    1  UNL1       -0.2743
     18 C          18.8580   70.5298   -9.1881 C.ar    1  UNL1        0.2626
     19 C          19.9543   70.7032   -8.3082 C.ar    1  UNL1        0.0795
     20 C          19.7150   70.9446   -7.0017 C.ar    1  UNL1        0.0869
     21 O          16.2557   70.9160   -6.9749 O.2     1  UNL1       -0.2464
     22 O          19.0494   70.3100  -10.3711 O.2     1  UNL1       -0.2670
     23 H          16.8471   70.4917   -9.3012 H       1  UNL1        0.1734
     24 O          22.7041   72.1621    0.2641 O.3     1  UNL1       -0.2703
     25 P          22.2464   72.1129    1.8062 P.3     1  UNL1        0.2208
     26 O          20.7885   71.8721    1.8804 O.2     1  UNL1       -0.5170
     27 O          23.0257   70.9214    2.5593 O.3     1  UNL1       -0.4371
     28 O          22.5966   73.5142    2.5161 O.3     1  UNL1       -0.2858
     29 C          23.4538   73.2178    3.6193 C.3     1  UNL1        0.2704
     30 C          22.6801   73.3934    4.9268 C.3     1  UNL1        0.1967
     31 C          22.1666   74.8341    5.0127 C.3     1  UNL1        0.1715
     32 C          23.3509   75.7885    4.8223 C.3     1  UNL1        0.1694
     33 C          24.0731   75.4321    3.5206 C.3     1  UNL1        0.1761
     34 O          21.5755   72.4876    4.9548 O.3     1  UNL1       -0.3775
     35 O          21.5694   75.0554    6.2921 O.3     1  UNL1       -0.3794
     36 O          24.2504   75.6595    5.9242 O.3     1  UNL1       -0.3794
     37 O          24.5747   74.0986    3.5980 O.3     1  UNL1       -0.3258
     38 H          21.9442   71.5960    4.8913 H       1  UNL1        0.2106
     39 H          20.8400   74.4279    6.3728 H       1  UNL1        0.2105
     40 H          23.7525   75.8873    6.7201 H       1  UNL1        0.2105
     41 C          25.2373   76.4014    3.3034 C.3     1  UNL1        0.1693
     42 O          24.9025   77.3209    2.2626 O.3     1  UNL1       -0.3794
     43 H          25.6600   77.9130    2.1579 H       1  UNL1        0.2105
@<TRIPOS>BOND
     1    15    16   ar
     2    15    20   ar
     3    15     6    1
     4    16    17   ar
     5    16    21    2
     6    17    18   ar
     7    17    23    1
     8    18    19   ar
     9    18    22    2
    10    19    20   ar
    11     6     7    1
    12     6    11    1
    13     7     8    1
    14     7     9    1
    15     8    13    1
    16     9    10    1
    17     9    12    1
    18    10    11    1
    19    10     5    1
    20    12    14    1
    21     5     4    1
    22     4     1    1
    23     1     2    2
    24     1     3    1
    25     1    24    1
    26    24    25    1
    27    25    26    2
    28    25    27    1
    29    25    28    1
    30    28    29    1
    31    29    30    1
    32    29    37    1
    33    30    31    1
    34    30    34    1
    35    31    32    1
    36    31    35    1
    37    32    33    1
    38    32    36    1
    39    33    41    1
    40    33    37    1
    41    41    42    1
    42    34    38    1
    43    35    39    1
    44    36    40    1
    45    42    43    1
@<TRIPOS>MOLECULE
GDU
 43 45 0 0 0
SMALL
GASTEIGER

@<TRIPOS>ATOM
      1 P          22.8718   72.0953   -3.1878 P.3     1  UNL1        0.2189
      2 O          22.8646   72.6104   -1.8007 O.2     1  UNL1       -0.5170
      3 O          23.2711   70.5354   -3.1789 O.3     1  UNL1       -0.4371
      4 O          21.4092   72.2711   -3.8335 O.3     1  UNL1       -0.3112
      5 C          20.4650   72.0653   -2.7816 C.3     1  UNL1        0.1811
      6 C          18.0811   71.2860   -5.3578 C.3     1  UNL1        0.2383
      7 C          18.1571   69.9998   -4.4960 C.3     1  UNL1        0.1895
      8 O          16.9063   69.3079   -4.5012 O.3     1  UNL1       -0.3779
      9 C          18.4679   70.5702   -3.0877 C.3     1  UNL1        0.1713
     10 C          19.0567   71.9648   -3.3704 C.3     1  UNL1        0.1764
     11 O          19.1115   72.1279   -4.7982 O.3     1  UNL1       -0.3308
     12 O          17.2704   70.6726   -2.3148 O.3     1  UNL1       -0.3794
     13 H          17.0205   68.5212   -3.9499 H       1  UNL1        0.2106
     14 H          16.9190   69.7767   -2.2226 H       1  UNL1        0.2105
     15 N          18.3662   70.9863   -6.7620 N.ar    1  UNL1       -0.2551
     16 C          17.3528   70.7341   -7.6091 C.ar    1  UNL1        0.3323
     17 N          17.5874   70.4593   -8.9058 N.ar    1  UNL1       -0.2743
     18 C          18.8492   70.4226   -9.3755 C.ar    1  UNL1        0.2626
     19 C          19.9270   70.6805   -8.4935 C.ar    1  UNL1        0.0795
     20 C          19.6633   70.9577   -7.1988 C.ar    1  UNL1        0.0869
     21 O          16.2092   70.7641   -7.2000 O.2     1  UNL1       -0.2464
     22 O          19.0629   70.1692  -10.5480 O.2     1  UNL1       -0.2670
     23 H          16.8437   70.2839   -9.5040 H       1  UNL1        0.1734
     24 O          23.9470   72.9181   -4.0593 O.3     1  UNL1       -0.2703
     25 P          23.4184   74.4360   -4.1405 P.3     1  UNL1        0.2208
     26 O          22.5028   74.5782   -5.2940 O.2     1  UNL1       -0.5170
     27 O          22.6324   74.8036   -2.7836 O.3     1  UNL1       -0.4371
     28 O          24.6695   75.4321   -4.3211 O.3     1  UNL1       -0.2858
     29 C          25.6761   75.0049   -3.4025 C.3     1  UNL1        0.2704
     30 C          25.9896   76.1400   -2.4265 C.3     1  UNL1        0.1967
     31 C          26.4641   77.3620   -3.2190 C.3     1  UNL1        0.1715
     32 C          27.6277   76.9386   -4.1225 C.3     1  UNL1        0.1694
     33 C          27.1889   75.7431   -4.9718 C.3     1  UNL1        0.1761
     34 O          24.8136   76.4742   -1.6873 O.3     1  UNL1       -0.3775
     35 O          26.9003   78.3802   -2.3158 O.3     1  UNL1       -0.3794
     36 O          28.7492   76.5727   -3.3173 O.3     1  UNL1       -0.3794
     37 O          26.8532   74.6467   -4.1227 O.3     1  UNL1       -0.3258
     38 H          24.5472   75.6760   -1.2111 H       1  UNL1        0.2106
     39 H          26.1425   78.6060   -1.7617 H       1  UNL1        0.2105
     40 H          28.9863   77.3516   -2.7972 H       1  UNL1        0.2105
     41 C          28.3326   75.3338   -5.9026 C.3     1  UNL1        0.1693
     42 O          27.8627   75.3108   -7.2516 O.3     1  UNL1       -0.3794
     43 H          28.6119   75.0496   -7.8045 H       1  UNL1        0.2105
@<TRIPOS>BOND
     1    15    16   ar
     2    15    20   ar
     3    15     6    1
     4    16    17   ar
     5    16    21    2
     6    17    18   ar
     7    17    23    1
     8    18    19   ar
     9    18    22    2
    10    19    20   ar
    11     6     7    1
    12     6    11    1
    13     7     8    1
    14     7     9    1
    15     8    13    1
    16     9    10    1
    17     9    12    1
    18    10    11    1
    19    10     5    1
    20    12    14    1
    21     5     4    1
    22     4     1    1
    23     1     2    2
    24     1     3    1
    25     1    24    1
    26    24    25    1
    27    25    26    2
    28    25    27    1
    29    25    28    1
    30    28    29    1
    31    29    30    1
    32    29    37    1
    33    30    31    1
    34    30    34    1
    35    31    32    1
    36    31    35    1
    37    32    33    1
    38    32    36    1
    39    33    41    1
    40    33    37    1
    41    41    42    1
    42    34    38    1
    43    35    39    1
    44    36    40    1
    45    42    43    1
@<TRIPOS>MOLECULE
GDU
 43 45 0 0 0
SMALL
GASTEIGER

@<TRIPOS>ATOM
      1 P          21.6550   71.0242   -0.4007 P.3     1  UNL1        0.2189
      2 O          21.1900   69.6437   -0.6602 O.2     1  UNL1       -0.5170
      3 O          23.2648   71.0514   -0.3711 O.3     1  UNL1       -0.4371
      4 O          21.1232   71.9979   -1.5651 O.3     1  UNL1       -0.3112
      5 C          20.8999   71.1825   -2.7166 C.3     1  UNL1        0.1811
      6 C          18.3500   71.1427   -5.2511 C.3     1  UNL1        0.2383
      7 C          18.1606   69.8070   -4.4876 C.3     1  UNL1        0.1895
      8 O          16.7889   69.4051   -4.4957 O.3     1  UNL1       -0.3779
      9 C          18.6180   70.1842   -3.0545 C.3     1  UNL1        0.1713
     10 C          19.4918   71.4359   -3.2579 C.3     1  UNL1        0.1764
     11 O          19.5511   71.6948   -4.6713 O.3     1  UNL1       -0.3308
     12 O          17.4884   70.4827   -2.2319 O.3     1  UNL1       -0.3794
     13 H          16.7396   68.5716   -4.0071 H       1  UNL1        0.2106
     14 H          16.9514   69.6797   -2.1914 H       1  UNL1        0.2105
     15 N          18.5332   70.8994   -6.6829 N.ar    1  UNL1       -0.2551
     16 C          17.4581   70.7688   -7.4800 C.ar    1  UNL1        0.3323
     17 N          17.5990   70.5482   -8.8004 N.ar    1  UNL1       -0.2743
     18 C          18.8264   70.4444   -9.3453 C.ar    1  UNL1        0.2626
     19 C          19.9679   70.5741   -8.5169 C.ar    1  UNL1        0.0795
     20 C          19.7982   70.7993   -7.1967 C.ar    1  UNL1        0.0869
     21 O          16.3446   70.8606   -7.0029 O.2     1  UNL1       -0.2464
     22 O          18.9548   70.2399  -10.5396 O.2     1  UNL1       -0.2670
     23 H          16.8120   70.4608   -9.3615 H       1  UNL1        0.1734
     24 O          21.0851   71.5233    1.0200 O.3     1  UNL1       -0.2703
     25 P          21.6120   73.0293    1.2312 P.3     1  UNL1        0.2208
     26 O          22.7153   73.3029    0.2842 O.2     1  UNL1       -0.5170
     27 O          20.4058   74.0622    0.9621 O.3     1  UNL1       -0.4371
     28 O          22.1422   73.2068    2.7403 O.3     1  UNL1       -0.2858
     29 C          22.1157   74.6055    3.0276 C.3     1  UNL1        0.2704
     30 C          23.4982   75.0538    3.5040 C.3     1  UNL1        0.1967
     31 C          23.8794   74.2524    4.7525 C.3     1  UNL1        0.1715
     32 C          22.7563   74.3920    5.7863 C.3     1  UNL1        0.1694
     33 C          21.4293   73.9917    5.1367 C.3     1  UNL1        0.1761
     34 O          24.4587   74.8211    2.4723 O.3     1  UNL1       -0.3775
     35 O          25.1002   74.7602    5.2948 O.3     1  UNL1       -0.3794
     36 O          22.6850   75.7463    6.2345 O.3     1  UNL1       -0.3794
     37 O          21.1473   74.8622    4.0420 O.3     1  UNL1       -0.3258
     38 H          24.1756   75.3380    1.7058 H       1  UNL1        0.2106
     39 H          25.7728   74.6636    4.6088 H       1  UNL1        0.2105
     40 H          23.5413   75.9557    6.6298 H       1  UNL1        0.2105
     41 C          20.3058   74.0947    6.1707 C.3     1  UNL1        0.1693
     42 O          19.2620   73.1802    5.8313 O.3     1  UNL1       -0.3794
     43 H          18.5758   73.2757    6.5061 H       1  UNL1        0.2105
@<TRIPOS>BOND
     1    15    16   ar
     2    15    20   ar
     3    15     6    1
     4    16    17   ar
     5    16    21    2
     6    17    18   ar
     7    17    23    1
     8    18    19   ar
     9    18    22    2
    10    19    20   ar
    11     6     7    1
    12     6    11    1
    13     7     8    1
    14     7     9    1
    15     8    13    1
    16     9    10    1
    17     9    12    1
    18    10    11    1
    19    10     5    1
    20    12    14    1
    21     5     4    1
    22     4     1    1
    23     1     2    2
    24     1     3    1
    25     1    24    1
    26    24    25    1
    27    25    26    2
    28    25    27    1
    29    25    28    1
    30    28    29    1
    31    29    30    1
    32    29    37    1
    33    30    31    1
    34    30    34    1
    35    31    32    1
    36    31    35    1
    37    32    33    1
    38    32    36    1
    39    33    41    1
    40    33    37    1
    41    41    42    1
    42    34    38    1
    43    35    39    1
    44    36    40    1
    45    42    43    1
@<TRIPOS>MOLECULE
GDU
 43 45 0 0 0
SMALL
GASTEIGER

@<TRIPOS>ATOM
      1 P          22.0483   73.9212   -6.5703 P.3     1  UNL1        0.2189
      2 O          22.7673   72.6772   -6.9238 O.2     1  UNL1       -0.5170
      3 O          23.1050   75.1263   -6.4156 O.3     1  UNL1       -0.4371
      4 O          20.9922   74.2790   -7.7294 O.3     1  UNL1       -0.3112
      5 C          21.1136   73.2642   -8.7274 C.3     1  UNL1        0.1811
      6 C          18.4746   71.2539   -7.3410 C.3     1  UNL1        0.2383
      7 C          17.9394   72.7066   -7.2624 C.3     1  UNL1        0.1895
      8 O          16.5156   72.7328   -7.3854 O.3     1  UNL1       -0.3779
      9 C          18.6132   73.3681   -8.4927 C.3     1  UNL1        0.1713
     10 C          19.8165   72.4561   -8.7959 C.3     1  UNL1        0.1764
     11 O          19.8334   71.4198   -7.7989 O.3     1  UNL1       -0.3308
     12 O          17.7101   73.4005   -9.5996 O.3     1  UNL1       -0.3794
     13 H          16.2478   73.6607   -7.3284 H       1  UNL1        0.2106
     14 H          16.9527   73.9363   -9.3276 H       1  UNL1        0.2105
     15 N          18.4486   70.6202   -6.0217 N.ar    1  UNL1       -0.2551
     16 C          17.3641   69.9242   -5.6375 C.ar    1  UNL1        0.3323
     17 N          17.3161   69.3290   -4.4311 N.ar    1  UNL1       -0.2743
     18 C          18.3559   69.4302   -3.5811 C.ar    1  UNL1        0.2626
     19 C          19.5027   70.1650   -3.9700 C.ar    1  UNL1        0.0795
     20 C          19.5262   70.7484   -5.1872 C.ar    1  UNL1        0.0869
     21 O          16.4185   69.8237   -6.3937 O.2     1  UNL1       -0.2464
     22 O          18.3115   68.8957   -2.4870 O.2     1  UNL1       -0.2670
     23 H          16.5270   68.8270   -4.1720 H       1  UNL1        0.1734
     24 O          21.2679   73.7115   -5.1776 O.3     1  UNL1       -0.2703
     25 P          22.3868   73.6267   -4.0240 P.3     1  UNL1        0.2208
     26 O          23.4860   72.7411   -4.4674 O.2     1  UNL1       -0.5170
     27 O          22.9695   75.0997   -3.7326 O.3     1  UNL1       -0.4371
     28 O          21.7291   73.0355   -2.6794 O.3     1  UNL1       -0.2858
     29 C          22.8059   72.7051   -1.8013 C.3     1  UNL1        0.2704
     30 C          22.6796   71.2438   -1.3680 C.3     1  UNL1        0.1967
     31 C          21.3312   71.0458   -0.6687 C.3     1  UNL1        0.1715
     32 C          21.2097   72.0741    0.4616 C.3     1  UNL1        0.1694
     33 C          21.4457   73.4737   -0.1114 C.3     1  UNL1        0.1761
     34 O          22.7542   70.3961   -2.5157 O.3     1  UNL1       -0.3775
     35 O          21.2598   69.7245   -0.1287 O.3     1  UNL1       -0.3794
     36 O          22.1831   71.7944    1.4686 O.3     1  UNL1       -0.3794
     37 O          22.7615   73.5548   -0.6573 O.3     1  UNL1       -0.3258
     38 H          23.6138   70.5589   -2.9273 H       1  UNL1        0.2106
     39 H          21.3523   69.1136   -0.8707 H       1  UNL1        0.2105
     40 H          21.9998   70.9040    1.7955 H       1  UNL1        0.2105
     41 C          21.2928   74.5115    1.0029 C.3     1  UNL1        0.1693
     42 O          20.5289   73.9517    2.0725 O.3     1  UNL1       -0.3794
     43 H          20.4565   74.6355    2.7525 H       1  UNL1        0.2105
@<TRIPOS>BOND
     1    15    16   ar
     2    15    20   ar
     3    15     6    1
     4    16    17   ar
     5    16    21    2
     6    17    18   ar
     7    17    23    1
     8    18    19   ar
     9    18    22    2
    10    19    20   ar
    11     6     7    1
    12     6    11    1
    13     7     8    1
    14     7     9    1
    15     8    13    1
    16     9    10    1
    17     9    12    1
    18    10    11    1
    19    10     5    1
    20    12    14    1
    21     5     4    1
    22     4     1    1
    23     1     2    2
    24     1     3    1
    25     1    24    1
    26    24    25    1
    27    25    26    2
    28    25    27    1
    29    25    28    1
    30    28    29    1
    31    29    30    1
    32    29    37    1
    33    30    31    1
    34    30    34    1
    35    31    32    1
    36    31    35    1
    37    32    33    1
    38    32    36    1
    39    33    41    1
    40    33    37    1
    41    41    42    1
    42    34    38    1
    43    35    39    1
    44    36    40    1
    45    42    43    1
@<TRIPOS>MOLECULE
GDU
 43 45 0 0 0
SMALL
GASTEIGER

@<TRIPOS>ATOM
      1 P          22.8151   72.1076   -3.5242 P.3     1  UNL1        0.2189
      2 O          23.7758   72.9063   -4.3172 O.2     1  UNL1       -0.5170
      3 O          23.4551   70.6661   -3.1996 O.3     1  UNL1       -0.4371
      4 O          22.4887   72.8722   -2.1474 O.3     1  UNL1       -0.3112
      5 C          22.4341   71.8768   -1.1243 C.3     1  UNL1        0.1811
      6 C          21.2614   73.4081    1.9101 C.3     1  UNL1        0.2383
      7 C          21.0548   74.4926    0.8219 C.3     1  UNL1        0.1895
      8 O          19.9333   75.3218    1.1348 O.3     1  UNL1       -0.3779
      9 C          20.7748   73.6367   -0.4407 C.3     1  UNL1        0.1713
     10 C          21.3667   72.2573   -0.0966 C.3     1  UNL1        0.1764
     11 O          21.9598   72.3568    1.2097 O.3     1  UNL1       -0.3308
     12 O          19.3688   73.5404   -0.6773 O.3     1  UNL1       -0.3794
     13 H          19.8601   75.9722    0.4225 H       1  UNL1        0.2106
     14 H          19.0478   74.4399   -0.8274 H       1  UNL1        0.2105
     15 N          22.0776   73.9261    3.0093 N.ar    1  UNL1       -0.2551
     16 C          21.4800   74.4494    4.0944 C.ar    1  UNL1        0.3323
     17 N          22.2073   74.9293    5.1204 N.ar    1  UNL1       -0.2743
     18 C          23.5531   74.9016    5.0715 C.ar    1  UNL1        0.2626
     19 C          24.1962   74.3587    3.9323 C.ar    1  UNL1        0.0795
     20 C          23.4428   73.8804    2.9194 C.ar    1  UNL1        0.0869
     21 O          20.2669   74.4807    4.1531 O.2     1  UNL1       -0.2464
     22 O          24.2122   75.3401    5.9977 O.2     1  UNL1       -0.2670
     23 H          21.7594   75.2994    5.8977 H       1  UNL1        0.1734
     24 O          21.4568   71.9128   -4.3665 O.3     1  UNL1       -0.2703
     25 P          21.4574   73.0357   -5.5193 P.3     1  UNL1        0.2208
     26 O          21.4809   74.3789   -4.8993 O.2     1  UNL1       -0.5170
     27 O          22.7607   72.8509   -6.4475 O.3     1  UNL1       -0.4371
     28 O          20.1326   72.8825   -6.4200 O.3     1  UNL1       -0.2858
     29 C          20.3235   71.7337   -7.2469 C.3     1  UNL1        0.2704
     30 C          20.1082   72.1190   -8.7113 C.3     1  UNL1        0.1967
     31 C          18.6907   72.6753   -8.8773 C.3     1  UNL1        0.1715
     32 C          17.6945   71.6529   -8.3185 C.3     1  UNL1        0.1694
     33 C          18.0921   71.3043   -6.8821 C.3     1  UNL1        0.1761
     34 O          21.0616   73.1135   -9.0897 O.3     1  UNL1       -0.3775
     35 O          18.4231   72.9022  -10.2627 O.3     1  UNL1       -0.3794
     36 O          17.7165   70.4743   -9.1250 O.3     1  UNL1       -0.3794
     37 O          19.3939   70.7202   -6.8712 O.3     1  UNL1       -0.3258
     38 H          21.9371   72.7233   -8.9627 H       1  UNL1        0.2106
     39 H          19.0784   73.5396  -10.5735 H       1  UNL1        0.2105
     40 H          17.4662   70.7420  -10.0188 H       1  UNL1        0.2105
     41 C          17.0837   70.3096   -6.3027 C.3     1  UNL1        0.1693
     42 O          16.6544   70.7620   -5.0174 O.3     1  UNL1       -0.3794
     43 H          16.0210   70.1095   -4.6882 H       1  UNL1        0.2105
@<TRIPOS>BOND
     1    15    16   ar
     2    15    20   ar
     3    15     6    1
     4    16    17   ar
     5    16    21    2
     6    17    18   ar
     7    17    23    1
     8    18    19   ar
     9    18    22    2
    10    19    20   ar
    11     6     7    1
    12     6    11    1
    13     7     8    1
    14     7     9    1
    15     8    13    1
    16     9    10    1
    17     9    12    1
    18    10    11    1
    19    10     5    1
    20    12    14    1
    21     5     4    1
    22     4     1    1
    23     1     2    2
    24     1     3    1
    25     1    24    1
    26    24    25    1
    27    25    26    2
    28    25    27    1
    29    25    28    1
    30    28    29    1
    31    29    30    1
    32    29    37    1
    33    30    31    1
    34    30    34    1
    35    31    32    1
    36    31    35    1
    37    32    33    1
    38    32    36    1
    39    33    41    1
    40    33    37    1
    41    41    42    1
    42    34    38    1
    43    35    39    1
    44    36    40    1
    45    42    43    1
@<TRIPOS>MOLECULE
GDU
 43 45 0 0 0
SMALL
GASTEIGER

@<TRIPOS>ATOM
      1 P          21.6459   70.2262   -0.4679 P.3     1  UNL1        0.2189
      2 O          22.0298   69.1914    0.5176 O.2     1  UNL1       -0.5170
      3 O          22.9655   70.7791   -1.2069 O.3     1  UNL1       -0.4371
      4 O          20.6490   69.5875   -1.5566 O.3     1  UNL1       -0.3112
      5 C          20.0137   70.6779   -2.2259 C.3     1  UNL1        0.1811
      6 C          19.8129   71.5811   -5.7002 C.3     1  UNL1        0.2383
      7 C          20.4841   72.8012   -5.0192 C.3     1  UNL1        0.1895
      8 O          21.3817   73.4569   -5.9179 O.3     1  UNL1       -0.3779
      9 C          21.2582   72.1362   -3.8514 C.3     1  UNL1        0.1713
     10 C          20.5494   70.7833   -3.6549 C.3     1  UNL1        0.1764
     11 O          19.4587   70.7286   -4.5906 O.3     1  UNL1       -0.3308
     12 O          22.6290   71.9436   -4.2062 O.3     1  UNL1       -0.3794
     13 H          21.7638   74.2032   -5.4353 H       1  UNL1        0.2106
     14 H          23.0008   72.8202   -4.3736 H       1  UNL1        0.2105
     15 N          18.6167   71.9924   -6.4370 N.ar    1  UNL1       -0.2551
     16 C          18.3307   71.4174   -7.6185 C.ar    1  UNL1        0.3323
     17 N          17.2352   71.7748   -8.3143 N.ar    1  UNL1       -0.2743
     18 C          16.4089   72.7267   -7.8398 C.ar    1  UNL1        0.2626
     19 C          16.7007   73.3452   -6.5994 C.ar    1  UNL1        0.0795
     20 C          17.8036   72.9648   -5.9201 C.ar    1  UNL1        0.0869
     21 O          19.0665   70.5568   -8.0591 O.2     1  UNL1       -0.2464
     22 O          15.4197   73.0543   -8.4712 O.2     1  UNL1       -0.2670
     23 H          17.0419   71.3462   -9.1632 H       1  UNL1        0.1734
     24 O          20.9083   71.4404    0.2899 O.3     1  UNL1       -0.2703
     25 P          21.9189   71.9625    1.4284 P.3     1  UNL1        0.2208
     26 O          22.8331   70.8659    1.8167 O.2     1  UNL1       -0.5170
     27 O          22.7777   73.1995    0.8570 O.3     1  UNL1       -0.4371
     28 O          21.0786   72.4426    2.7142 O.3     1  UNL1       -0.2858
     29 C          21.3582   73.8311    2.8978 C.3     1  UNL1        0.2704
     30 C          22.2859   74.0089    4.1007 C.3     1  UNL1        0.1967
     31 C          21.6080   73.4248    5.3439 C.3     1  UNL1        0.1715
     32 C          20.2210   74.0608    5.4902 C.3     1  UNL1        0.1694
     33 C          19.4486   73.8771    4.1815 C.3     1  UNL1        0.1761
     34 O          23.5178   73.3264    3.8601 O.3     1  UNL1       -0.3775
     35 O          22.3957   73.7136    6.5008 O.3     1  UNL1       -0.3794
     36 O          20.3615   75.4530    5.7763 O.3     1  UNL1       -0.3794
     37 O          20.1381   74.5346    3.1193 O.3     1  UNL1       -0.3258
     38 H          23.9050   73.7209    3.0668 H       1  UNL1        0.2106
     39 H          23.2597   73.3061    6.3600 H       1  UNL1        0.2105
     40 H          20.8572   75.5203    6.6027 H       1  UNL1        0.2105
     41 C          18.0492   74.4787    4.3285 C.3     1  UNL1        0.1693
     42 O          17.7443   75.2614    3.1728 O.3     1  UNL1       -0.3794
     43 H          16.8563   75.6210    3.3047 H       1  UNL1        0.2105
@<TRIPOS>BOND
     1    15    16   ar
     2    15    20   ar
     3    15     6    1
     4    16    17   ar
     5    16    21    2
     6    17    18   ar
     7    17    23    1
     8    18    19   ar
     9    18    22    2
    10    19    20   ar
    11     6     7    1
    12     6    11    1
    13     7     8    1
    14     7     9    1
    15     8    13    1
    16     9    10    1
    17     9    12    1
    18    10    11    1
    19    10     5    1
    20    12    14    1
    21     5     4    1
    22     4     1    1
    23     1     2    2
    24     1     3    1
    25     1    24    1
    26    24    25    1
    27    25    26    2
    28    25    27    1
    29    25    28    1
    30    28    29    1
    31    29    30    1
    32    29    37    1
    33    30    31    1
    34    30    34    1
    35    31    32    1
    36    31    35    1
    37    32    33    1
    38    32    36    1
    39    33    41    1
    40    33    37    1
    41    41    42    1
    42    34    38    1
    43    35    39    1
    44    36    40    1
    45    42    43    1
@<TRIPOS>MOLECULE
GDU
 43 45 0 0 0
SMALL
GASTEIGER

@<TRIPOS>ATOM
      1 P          22.4464   72.8305   -4.3462 P.3     1  UNL1        0.2189
      2 O          22.6870   73.0477   -5.7899 O.2     1  UNL1       -0.5170
      3 O          23.8505   72.5736   -3.6009 O.3     1  UNL1       -0.4371
      4 O          21.7355   74.1297   -3.7187 O.3     1  UNL1       -0.3112
      5 C          21.7532   75.1394   -4.7289 C.3     1  UNL1        0.1811
      6 C          19.0577   74.0746   -6.8567 C.3     1  UNL1        0.2383
      7 C          18.7290   73.4565   -5.4736 C.3     1  UNL1        0.1895
      8 O          17.3162   73.3436   -5.2883 O.3     1  UNL1       -0.3779
      9 C          19.3330   74.5011   -4.4993 C.3     1  UNL1        0.1713
     10 C          20.3631   75.2603   -5.3560 C.3     1  UNL1        0.1764
     11 O          20.3628   74.6598   -6.6627 O.3     1  UNL1       -0.3308
     12 O          18.3173   75.3870   -4.0242 O.3     1  UNL1       -0.3794
     13 H          17.1800   72.9540   -4.4134 H       1  UNL1        0.2106
     14 H          17.6736   74.8453   -3.5479 H       1  UNL1        0.2105
     15 N          19.1055   73.0378   -7.8891 N.ar    1  UNL1       -0.2551
     16 C          18.5039   73.2476   -9.0733 C.ar    1  UNL1        0.3323
     17 N          18.5361   72.3122  -10.0406 N.ar    1  UNL1       -0.2743
     18 C          19.1668   71.1404   -9.8327 C.ar    1  UNL1        0.2626
     19 C          19.8001   70.9032   -8.5881 C.ar    1  UNL1        0.0795
     20 C          19.7562   71.8601   -7.6368 C.ar    1  UNL1        0.0869
     21 O          17.9314   74.3000   -9.2756 O.2     1  UNL1       -0.2464
     22 O          19.1924   70.2912  -10.7059 O.2     1  UNL1       -0.2670
     23 H          18.1001   72.4822  -10.8908 H       1  UNL1        0.1734
     24 O          21.4932   71.5478   -4.1491 O.3     1  UNL1       -0.2703
     25 P          21.9931   70.7953   -2.8173 P.3     1  UNL1        0.2208
     26 O          21.2732   69.5103   -2.6774 O.2     1  UNL1       -0.5170
     27 O          23.5757   70.5145   -2.9217 O.3     1  UNL1       -0.4371
     28 O          21.6970   71.7199   -1.5338 O.3     1  UNL1       -0.2858
     29 C          22.7917   71.5434   -0.6337 C.3     1  UNL1        0.2704
     30 C          22.2663   71.0564    0.7177 C.3     1  UNL1        0.1967
     31 C          21.2746   72.0863    1.2675 C.3     1  UNL1        0.1715
     32 C          21.9555   73.4594    1.2889 C.3     1  UNL1        0.1694
     33 C          22.5032   73.7652   -0.1074 C.3     1  UNL1        0.1761
     34 O          21.6092   69.7988    0.5507 O.3     1  UNL1       -0.3775
     35 O          20.8869   71.7193    2.5933 O.3     1  UNL1       -0.3794
     36 O          23.0255   73.4476    2.2349 O.3     1  UNL1       -0.3794
     37 O          23.4742   72.7842   -0.4691 O.3     1  UNL1       -0.3258
     38 H          22.2673   69.1850    0.1970 H       1  UNL1        0.2106
     39 H          20.4757   70.8478    2.5334 H       1  UNL1        0.2105
     40 H          22.6358   73.2460    3.0956 H       1  UNL1        0.2105
     41 C          23.1554   75.1496   -0.1057 C.3     1  UNL1        0.1693
     42 O          24.5685   75.0093    0.0501 O.3     1  UNL1       -0.3794
     43 H          24.9406   75.9019    0.0454 H       1  UNL1        0.2105
@<TRIPOS>BOND
     1    15    16   ar
     2    15    20   ar
     3    15     6    1
     4    16    17   ar
     5    16    21    2
     6    17    18   ar
     7    17    23    1
     8    18    19   ar
     9    18    22    2
    10    19    20   ar
    11     6     7    1
    12     6    11    1
    13     7     8    1
    14     7     9    1
    15     8    13    1
    16     9    10    1
    17     9    12    1
    18    10    11    1
    19    10     5    1
    20    12    14    1
    21     5     4    1
    22     4     1    1
    23     1     2    2
    24     1     3    1
    25     1    24    1
    26    24    25    1
    27    25    26    2
    28    25    27    1
    29    25    28    1
    30    28    29    1
    31    29    30    1
    32    29    37    1
    33    30    31    1
    34    30    34    1
    35    31    32    1
    36    31    35    1
    37    32    33    1
    38    32    36    1
    39    33    41    1
    40    33    37    1
    41    41    42    1
    42    34    38    1
    43    35    39    1
    44    36    40    1
    45    42    43    1
@<TRIPOS>MOLECULE
GDU
 43 45 0 0 0
SMALL
GASTEIGER

@<TRIPOS>ATOM
      1 P          22.7251   75.0104   -3.9410 P.3     1  UNL1        0.2189
      2 O          22.4565   76.2068   -3.1126 O.2     1  UNL1       -0.5170
      3 O          24.1086   75.2107   -4.7402 O.3     1  UNL1       -0.4371
      4 O          22.8350   73.7151   -2.9940 O.3     1  UNL1       -0.3112
      5 C          21.8428   73.8609   -1.9767 C.3     1  UNL1        0.1811
      6 C          19.8766   70.9113   -2.5781 C.3     1  UNL1        0.2383
      7 C          21.2944   70.5441   -3.0860 C.3     1  UNL1        0.1895
      8 O          21.5463   69.1459   -2.9284 O.3     1  UNL1       -0.3779
      9 C          22.2026   71.3790   -2.1461 C.3     1  UNL1        0.1713
     10 C          21.2741   72.4873   -1.6160 C.3     1  UNL1        0.1764
     11 O          19.9913   72.3102   -2.2414 O.3     1  UNL1       -0.3308
     12 O          22.6899   70.5699   -1.0738 O.3     1  UNL1       -0.3794
     13 H          22.4399   68.9842   -3.2618 H       1  UNL1        0.2106
     14 H          23.2136   69.8619   -1.4728 H       1  UNL1        0.2105
     15 N          18.8814   70.7146   -3.6333 N.ar    1  UNL1       -0.2551
     16 C          18.1877   69.5640   -3.6897 C.ar    1  UNL1        0.3323
     17 N          17.2645   69.3594   -4.6476 N.ar    1  UNL1       -0.2743
     18 C          17.0267   70.3057   -5.5761 C.ar    1  UNL1        0.2626
     19 C          17.7539   71.5204   -5.5326 C.ar    1  UNL1        0.0795
     20 C          18.6710   71.7014   -4.5586 C.ar    1  UNL1        0.0869
     21 O          18.3909   68.7013   -2.8587 O.2     1  UNL1       -0.2464
     22 O          16.1946   70.1195   -6.4464 O.2     1  UNL1       -0.2670
     23 H          16.7701   68.5246   -4.6706 H       1  UNL1        0.1734
     24 O          21.5236   74.8070   -4.9935 O.3     1  UNL1       -0.2703
     25 P          22.0604   73.7958   -6.1246 P.3     1  UNL1        0.2208
     26 O          22.9039   74.5368   -7.0882 O.2     1  UNL1       -0.5170
     27 O          22.9326   72.6316   -5.4332 O.3     1  UNL1       -0.4371
     28 O          20.8100   73.1407   -6.8974 O.3     1  UNL1       -0.2858
     29 C          20.8738   73.5950   -8.2500 C.3     1  UNL1        0.2704
     30 C          19.7657   74.6202   -8.4955 C.3     1  UNL1        0.1967
     31 C          18.4100   73.9678   -8.2076 C.3     1  UNL1        0.1715
     32 C          18.3013   72.6797   -9.0314 C.3     1  UNL1        0.1694
     33 C          19.5205   71.8002   -8.7434 C.3     1  UNL1        0.1761
     34 O          19.9517   75.7424   -7.6311 O.3     1  UNL1       -0.3775
     35 O          17.3585   74.8642   -8.5725 O.3     1  UNL1       -0.3794
     36 O          18.2578   73.0040  -10.4217 O.3     1  UNL1       -0.3794
     37 O          20.7106   72.4855   -9.1303 O.3     1  UNL1       -0.3258
     38 H          20.8181   76.1164   -7.8419 H       1  UNL1        0.2106
     39 H          17.4733   75.6617   -8.0404 H       1  UNL1        0.2105
     40 H          17.4801   73.5615  -10.5549 H       1  UNL1        0.2105
     41 C          19.4047   70.4957   -9.5352 C.3     1  UNL1        0.1693
     42 O          20.1895   69.4838   -8.9020 O.3     1  UNL1       -0.3794
     43 H          20.0889   68.6800   -9.4303 H       1  UNL1        0.2105
@<TRIPOS>BOND
     1    15    16   ar
     2    15    20   ar
     3    15     6    1
     4    16    17   ar
     5    16    21    2
     6    17    18   ar
     7    17    23    1
     8    18    19   ar
     9    18    22    2
    10    19    20   ar
    11     6     7    1
    12     6    11    1
    13     7     8    1
    14     7     9    1
    15     8    13    1
    16     9    10    1
    17     9    12    1
    18    10    11    1
    19    10     5    1
    20    12    14    1
    21     5     4    1
    22     4     1    1
    23     1     2    2
    24     1     3    1
    25     1    24    1
    26    24    25    1
    27    25    26    2
    28    25    27    1
    29    25    28    1
    30    28    29    1
    31    29    30    1
    32    29    37    1
    33    30    31    1
    34    30    34    1
    35    31    32    1
    36    31    35    1
    37    32    33    1
    38    32    36    1
    39    33    41    1
    40    33    37    1
    41    41    42    1
    42    34    38    1
    43    35    39    1
    44    36    40    1
    45    42    43    1
@<TRIPOS>MOLECULE
GDU
 43 45 0 0 0
SMALL
GASTEIGER

@<TRIPOS>ATOM
      1 P          19.7766   70.9525   -2.8011 P.3     1  UNL1        0.2189
      2 O          19.5859   69.5768   -2.2907 O.2     1  UNL1       -0.5170
      3 O          18.6397   71.9144   -2.1887 O.3     1  UNL1       -0.4371
      4 O          21.2277   71.4912   -2.3641 O.3     1  UNL1       -0.3112
      5 C          21.0885   72.0366   -1.0512 C.3     1  UNL1        0.1811
      6 C          23.1807   72.1749    1.8696 C.3     1  UNL1        0.2383
      7 C          22.7036   70.7015    1.8021 C.3     1  UNL1        0.1895
      8 O          23.6883   69.8211    2.3485 O.3     1  UNL1       -0.3779
      9 C          22.5496   70.4795    0.2749 C.3     1  UNL1        0.1713
     10 C          22.4133   71.9024   -0.2982 C.3     1  UNL1        0.1764
     11 O          22.4398   72.8177    0.8107 O.3     1  UNL1       -0.3308
     12 O          23.7061   69.8283   -0.2544 O.3     1  UNL1       -0.3794
     13 H          23.3314   68.9248    2.2769 H       1  UNL1        0.2106
     14 H          23.7699   68.9696    0.1851 H       1  UNL1        0.2105
     15 N          22.8478   72.7682    3.1658 N.ar    1  UNL1       -0.2551
     16 C          21.6180   72.5963    3.6818 C.ar    1  UNL1        0.3323
     17 N          21.2875   73.1283    4.8733 N.ar    1  UNL1       -0.2743
     18 C          22.1858   73.8538    5.5667 C.ar    1  UNL1        0.2626
     19 C          23.4833   74.0480    5.0328 C.ar    1  UNL1        0.0795
     20 C          23.7897   73.4998    3.8378 C.ar    1  UNL1        0.0869
     21 O          20.7972   71.9438    3.0680 O.2     1  UNL1       -0.2464
     22 O          21.8860   74.3397    6.6431 O.2     1  UNL1       -0.2670
     23 H          20.3966   72.9905    5.2326 H       1  UNL1        0.1734
     24 O          19.6658   70.9482   -4.4074 O.3     1  UNL1       -0.2703
     25 P          20.3112   72.3291   -4.9235 P.3     1  UNL1        0.2208
     26 O          19.9659   73.4170   -3.9820 O.2     1  UNL1       -0.5170
     27 O          21.9127   72.1763   -5.0020 O.3     1  UNL1       -0.4371
     28 O          19.7346   72.6793   -6.3846 O.3     1  UNL1       -0.2858
     29 C          18.6730   71.7596   -6.6431 C.3     1  UNL1        0.2704
     30 C          18.6674   71.3927   -8.1279 C.3     1  UNL1        0.1967
     31 C          18.4909   72.6691   -8.9562 C.3     1  UNL1        0.1715
     32 C          17.2408   73.4053   -8.4616 C.3     1  UNL1        0.1694
     33 C          17.3556   73.6214   -6.9506 C.3     1  UNL1        0.1761
     34 O          19.9044   70.7652   -8.4705 O.3     1  UNL1       -0.3775
     35 O          18.3363   72.3287  -10.3356 O.3     1  UNL1       -0.3794
     36 O          16.0805   72.6241   -8.7506 O.3     1  UNL1       -0.3794
     37 O          17.4295   72.3598   -6.2881 O.3     1  UNL1       -0.3258
     38 H          19.9766   69.9726   -7.9215 H       1  UNL1        0.2106
     39 H          19.1375   71.8588  -10.5994 H       1  UNL1        0.2105
     40 H          16.0523   72.5089   -9.7093 H       1  UNL1        0.2105
     41 C          16.1276   74.3864   -6.4518 C.3     1  UNL1        0.1693
     42 O          16.5416   75.4137   -5.5493 O.3     1  UNL1       -0.3794
     43 H          15.7404   75.8712   -5.2595 H       1  UNL1        0.2105
@<TRIPOS>BOND
     1    15    16   ar
     2    15    20   ar
     3    15     6    1
     4    16    17   ar
     5    16    21    2
     6    17    18   ar
     7    17    23    1
     8    18    19   ar
     9    18    22    2
    10    19    20   ar
    11     6     7    1
    12     6    11    1
    13     7     8    1
    14     7     9    1
    15     8    13    1
    16     9    10    1
    17     9    12    1
    18    10    11    1
    19    10     5    1
    20    12    14    1
    21     5     4    1
    22     4     1    1
    23     1     2    2
    24     1     3    1
    25     1    24    1
    26    24    25    1
    27    25    26    2
    28    25    27    1
    29    25    28    1
    30    28    29    1
    31    29    30    1
    32    29    37    1
    33    30    31    1
    34    30    34    1
    35    31    32    1
    36    31    35    1
    37    32    33    1
    38    32    36    1
    39    33    41    1
    40    33    37    1
    41    41    42    1
    42    34    38    1
    43    35    39    1
    44    36    40    1
    45    42    43    1
@<TRIPOS>MOLECULE
GDU
 43 45 0 0 0
SMALL
GASTEIGER

@<TRIPOS>ATOM
      1 P          22.9447   72.8214   -3.2275 P.3     1  UNL1        0.2189
      2 O          23.0891   73.0659   -1.7753 O.2     1  UNL1       -0.5170
      3 O          21.6593   73.6181   -3.7806 O.3     1  UNL1       -0.4371
      4 O          24.2636   73.3340   -3.9921 O.3     1  UNL1       -0.3112
      5 C          24.2502   74.7610   -3.9289 C.3     1  UNL1        0.1811
      6 C          27.7881   75.3882   -4.0589 C.3     1  UNL1        0.2383
      7 C          27.1409   76.7050   -4.5590 C.3     1  UNL1        0.1895
      8 O          27.9523   77.8324   -4.2215 O.3     1  UNL1       -0.3779
      9 C          25.8049   76.7297   -3.7717 C.3     1  UNL1        0.1713
     10 C          25.5821   75.2608   -3.3665 C.3     1  UNL1        0.1764
     11 O          26.6649   74.4926   -3.9192 O.3     1  UNL1       -0.3308
     12 O          25.9212   77.5624   -2.6163 O.3     1  UNL1       -0.3794
     13 H          27.4960   78.6156   -4.5593 H       1  UNL1        0.2106
     14 H          26.1184   78.4544   -2.9326 H       1  UNL1        0.2105
     15 N          28.7399   74.8722   -5.0441 N.ar    1  UNL1       -0.2551
     16 C          29.8481   74.2332   -4.6297 C.ar    1  UNL1        0.3323
     17 N          30.7374   73.7460   -5.5150 N.ar    1  UNL1       -0.2743
     18 C          30.5347   73.9007   -6.8376 C.ar    1  UNL1        0.2626
     19 C          29.3747   74.5768   -7.2886 C.ar    1  UNL1        0.0795
     20 C          28.4970   75.0517   -6.3794 C.ar    1  UNL1        0.0869
     21 O          30.0443   74.0856   -3.4398 O.2     1  UNL1       -0.2464
     22 O          31.3415   73.4643   -7.6395 O.2     1  UNL1       -0.2670
     23 H          31.5296   73.2837   -5.1982 H       1  UNL1        0.1734
     24 O          22.7502   71.2445   -3.4885 O.3     1  UNL1       -0.2703
     25 P          21.3314   70.8370   -2.8476 P.3     1  UNL1        0.2208
     26 O          21.4493   69.5184   -2.1869 O.2     1  UNL1       -0.5170
     27 O          20.8956   71.9437   -1.7616 O.3     1  UNL1       -0.4371
     28 O          20.2194   70.7591   -4.0085 O.3     1  UNL1       -0.2858
     29 C          19.0299   71.3504   -3.4840 C.3     1  UNL1        0.2704
     30 C          17.9293   70.2916   -3.3999 C.3     1  UNL1        0.1967
     31 C          17.6782   69.7213   -4.7992 C.3     1  UNL1        0.1715
     32 C          17.3939   70.8829   -5.7581 C.3     1  UNL1        0.1694
     33 C          18.5370   71.8967   -5.6646 C.3     1  UNL1        0.1761
     34 O          18.3401   69.2431   -2.5207 O.3     1  UNL1       -0.3775
     35 O          16.5545   68.8390   -4.7636 O.3     1  UNL1       -0.3794
     36 O          16.1623   71.5098   -5.3974 O.3     1  UNL1       -0.3794
     37 O          18.6140   72.4143   -4.3372 O.3     1  UNL1       -0.3258
     38 H          18.4935   69.6480   -1.6562 H       1  UNL1        0.2106
     39 H          16.7724   68.1334   -4.1415 H       1  UNL1        0.2105
     40 H          15.4744   70.8348   -5.4648 H       1  UNL1        0.2105
     41 C          18.2799   73.0444   -6.6437 C.3     1  UNL1        0.1693
     42 O          17.5553   74.0818   -5.9805 O.3     1  UNL1       -0.3794
     43 H          17.4148   74.7844   -6.6300 H       1  UNL1        0.2105
@<TRIPOS>BOND
     1    15    16   ar
     2    15    20   ar
     3    15     6    1
     4    16    17   ar
     5    16    21    2
     6    17    18   ar
     7    17    23    1
     8    18    19   ar
     9    18    22    2
    10    19    20   ar
    11     6     7    1
    12     6    11    1
    13     7     8    1
    14     7     9    1
    15     8    13    1
    16     9    10    1
    17     9    12    1
    18    10    11    1
    19    10     5    1
    20    12    14    1
    21     5     4    1
    22     4     1    1
    23     1     2    2
    24     1     3    1
    25     1    24    1
    26    24    25    1
    27    25    26    2
    28    25    27    1
    29    25    28    1
    30    28    29    1
    31    29    30    1
    32    29    37    1
    33    30    31    1
    34    30    34    1
    35    31    32    1
    36    31    35    1
    37    32    33    1
    38    32    36    1
    39    33    41    1
    40    33    37    1
    41    41    42    1
    42    34    38    1
    43    35    39    1
    44    36    40    1
    45    42    43    1
@<TRIPOS>MOLECULE
GDU
 43 45 0 0 0
SMALL
GASTEIGER

@<TRIPOS>ATOM
      1 P          22.7733   73.6153   -4.8507 P.3     1  UNL1        0.2189
      2 O          22.7984   75.0876   -4.9957 O.2     1  UNL1       -0.5170
      3 O          24.1126   73.1269   -4.1020 O.3     1  UNL1       -0.4371
      4 O          21.4874   73.1825   -3.9870 O.3     1  UNL1       -0.3112
      5 C          21.6625   73.7325   -2.6803 C.3     1  UNL1        0.1811
      6 C          22.3380   72.0906    0.4463 C.3     1  UNL1        0.2383
      7 C          21.2351   71.2264   -0.2167 C.3     1  UNL1        0.1895
      8 O          21.3630   69.8551    0.1659 O.3     1  UNL1       -0.3779
      9 C          21.5415   71.4104   -1.7259 C.3     1  UNL1        0.1713
     10 C          22.3650   72.7104   -1.7848 C.3     1  UNL1        0.1764
     11 O          22.4611   73.2204   -0.4436 O.3     1  UNL1       -0.3308
     12 O          22.3019   70.3058   -2.2196 O.3     1  UNL1       -0.3794
     13 H          20.6506   69.3741   -0.2780 H       1  UNL1        0.2106
     14 H          21.7573   69.5158   -2.1015 H       1  UNL1        0.2105
     15 N          21.9219   72.5275    1.7800 N.ar    1  UNL1       -0.2551
     16 C          22.2990   71.8218    2.8607 C.ar    1  UNL1        0.3323
     17 N          21.9329   72.2039    4.0984 N.ar    1  UNL1       -0.2743
     18 C          21.1703   73.3001    4.2739 C.ar    1  UNL1        0.2626
     19 C          20.7608   74.0501    3.1442 C.ar    1  UNL1        0.0795
     20 C          21.1456   73.6470    1.9146 C.ar    1  UNL1        0.0869
     21 O          22.9874   70.8309    2.7182 O.2     1  UNL1       -0.2464
     22 O          20.8344   73.6441    5.3934 O.2     1  UNL1       -0.2670
     23 H          22.2177   71.6850    4.8675 H       1  UNL1        0.1734
     24 O          22.6963   72.9348   -6.3080 O.3     1  UNL1       -0.2703
     25 P          21.3521   73.4784   -7.0064 P.3     1  UNL1        0.2208
     26 O          20.9237   74.7300   -6.3438 O.2     1  UNL1       -0.5170
     27 O          21.6367   73.7673   -8.5652 O.3     1  UNL1       -0.4371
     28 O          20.1904   72.3731   -6.8701 O.3     1  UNL1       -0.2858
     29 C          19.0315   72.9079   -7.5110 C.3     1  UNL1        0.2704
     30 C          17.8424   72.8408   -6.5514 C.3     1  UNL1        0.1967
     31 C          17.6112   71.3820   -6.1452 C.3     1  UNL1        0.1715
     32 C          17.4726   70.5357   -7.4157 C.3     1  UNL1        0.1694
     33 C          18.6918   70.7763   -8.3095 C.3     1  UNL1        0.1761
     34 O          18.1202   73.6244   -5.3895 O.3     1  UNL1       -0.3775
     35 O          16.4162   71.2839   -5.3674 O.3     1  UNL1       -0.3794
     36 O          16.2827   70.9096   -8.1116 O.3     1  UNL1       -0.3794
     37 O          18.7487   72.1515   -8.6859 O.3     1  UNL1       -0.3258
     38 H          18.2658   74.5310   -5.6927 H       1  UNL1        0.2106
     39 H          16.5434   71.8391   -4.5878 H       1  UNL1        0.2105
     40 H          15.5441   70.7471   -7.5105 H       1  UNL1        0.2105
     41 C          18.5801   69.9095   -9.5657 C.3     1  UNL1        0.1693
     42 O          19.3436   70.4990  -10.6196 O.3     1  UNL1       -0.3794
     43 H          19.2476   69.9232  -11.3906 H       1  UNL1        0.2105
@<TRIPOS>BOND
     1    15    16   ar
     2    15    20   ar
     3    15     6    1
     4    16    17   ar
     5    16    21    2
     6    17    18   ar
     7    17    23    1
     8    18    19   ar
     9    18    22    2
    10    19    20   ar
    11     6     7    1
    12     6    11    1
    13     7     8    1
    14     7     9    1
    15     8    13    1
    16     9    10    1
    17     9    12    1
    18    10    11    1
    19    10     5    1
    20    12    14    1
    21     5     4    1
    22     4     1    1
    23     1     2    2
    24     1     3    1
    25     1    24    1
    26    24    25    1
    27    25    26    2
    28    25    27    1
    29    25    28    1
    30    28    29    1
    31    29    30    1
    32    29    37    1
    33    30    31    1
    34    30    34    1
    35    31    32    1
    36    31    35    1
    37    32    33    1
    38    32    36    1
    39    33    41    1
    40    33    37    1
    41    41    42    1
    42    34    38    1
    43    35    39    1
    44    36    40    1
    45    42    43    1
@<TRIPOS>MOLECULE
GDU
 43 45 0 0 0
SMALL
GASTEIGER

@<TRIPOS>ATOM
      1 P          18.7541   71.6566   -2.7294 P.3     1  UNL1        0.2189
      2 O          17.3767   71.6864   -2.1896 O.2     1  UNL1       -0.5170
      3 O          19.1041   73.0848   -3.3856 O.3     1  UNL1       -0.4371
      4 O          19.7905   71.3441   -1.5398 O.3     1  UNL1       -0.3112
      5 C          20.3509   72.5957   -1.1399 C.3     1  UNL1        0.1811
      6 C          22.7799   72.3709    1.5014 C.3     1  UNL1        0.2383
      7 C          22.2787   70.9167    1.3089 C.3     1  UNL1        0.1895
      8 O          23.3100   69.9766    1.6185 O.3     1  UNL1       -0.3779
      9 C          21.9396   70.8875   -0.2042 C.3     1  UNL1        0.1713
     10 C          21.7545   72.3707   -0.5749 C.3     1  UNL1        0.1764
     11 O          21.9260   73.1400    0.6281 O.3     1  UNL1       -0.3308
     12 O          23.0156   70.3100   -0.9462 O.3     1  UNL1       -0.3794
     13 H          22.9353   69.0957    1.4794 H       1  UNL1        0.2106
     14 H          23.1202   69.4031   -0.6280 H       1  UNL1        0.2105
     15 N          22.6129   72.7965    2.8920 N.ar    1  UNL1       -0.2551
     16 C          21.4539   72.5535    3.5292 C.ar    1  UNL1        0.3323
     17 N          21.2758   72.9312    4.8088 N.ar    1  UNL1       -0.2743
     18 C          22.2582   73.5712    5.4719 C.ar    1  UNL1        0.2626
     19 C          23.4823   73.8391    4.8116 C.ar    1  UNL1        0.0795
     20 C          23.6359   73.4455    3.5295 C.ar    1  UNL1        0.0869
     21 O          20.5588   71.9767    2.9442 O.2     1  UNL1       -0.2464
     22 O          22.0962   73.9177    6.6287 O.2     1  UNL1       -0.2670
     23 H          20.4344   72.7438    5.2545 H       1  UNL1        0.1734
     24 O          18.8641   70.5095   -3.8539 O.3     1  UNL1       -0.2703
     25 P          17.6988   70.7944   -4.9267 P.3     1  UNL1        0.2208
     26 O          16.7706   69.6428   -4.9639 O.2     1  UNL1       -0.5170
     27 O          16.8905   72.1210   -4.5011 O.3     1  UNL1       -0.4371
     28 O          18.3492   71.0080   -6.3832 O.3     1  UNL1       -0.2858
     29 C          18.1884   72.3887   -6.7111 C.3     1  UNL1        0.2704
     30 C          17.8095   72.5207   -8.1870 C.3     1  UNL1        0.1967
     31 C          18.9100   71.8862   -9.0429 C.3     1  UNL1        0.1715
     32 C          20.2543   72.5128   -8.6561 C.3     1  UNL1        0.1694
     33 C          20.4488   72.3795   -7.1437 C.3     1  UNL1        0.1761
     34 O          16.5701   71.8509   -8.4247 O.3     1  UNL1       -0.3775
     35 O          18.6437   72.1307  -10.4256 O.3     1  UNL1       -0.3794
     36 O          20.2616   73.8930   -9.0238 O.3     1  UNL1       -0.3794
     37 O          19.4099   73.0801   -6.4611 O.3     1  UNL1       -0.3258
     38 H          15.9100   72.2774   -7.8615 H       1  UNL1        0.2106
     39 H          17.7867   71.7309  -10.6206 H       1  UNL1        0.2105
     40 H          20.1306   73.9285   -9.9803 H       1  UNL1        0.2105
     41 C          21.8042   72.9717   -6.7513 C.3     1  UNL1        0.1693
     42 O          22.7796   72.6188   -7.7336 O.3     1  UNL1       -0.3794
     43 H          23.6170   73.0109   -7.4501 H       1  UNL1        0.2105
@<TRIPOS>BOND
     1    15    16   ar
     2    15    20   ar
     3    15     6    1
     4    16    17   ar
     5    16    21    2
     6    17    18   ar
     7    17    23    1
     8    18    19   ar
     9    18    22    2
    10    19    20   ar
    11     6     7    1
    12     6    11    1
    13     7     8    1
    14     7     9    1
    15     8    13    1
    16     9    10    1
    17     9    12    1
    18    10    11    1
    19    10     5    1
    20    12    14    1
    21     5     4    1
    22     4     1    1
    23     1     2    2
    24     1     3    1
    25     1    24    1
    26    24    25    1
    27    25    26    2
    28    25    27    1
    29    25    28    1
    30    28    29    1
    31    29    30    1
    32    29    37    1
    33    30    31    1
    34    30    34    1
    35    31    32    1
    36    31    35    1
    37    32    33    1
    38    32    36    1
    39    33    41    1
    40    33    37    1
    41    41    42    1
    42    34    38    1
    43    35    39    1
    44    36    40    1
    45    42    43    1
@<TRIPOS>MOLECULE
GDU
 43 45 0 0 0
SMALL
GASTEIGER

@<TRIPOS>ATOM
      1 P          24.3176   74.3844   -3.0527 P.3     1  UNL1        0.2189
      2 O          25.7455   74.7536   -3.1725 O.2     1  UNL1       -0.5170
      3 O          23.4062   75.6988   -3.2389 O.3     1  UNL1       -0.4371
      4 O          23.9443   73.3074   -4.1873 O.3     1  UNL1       -0.3112
      5 C          22.5557   73.4758   -4.4769 C.3     1  UNL1        0.1811
      6 C          19.9690   71.1643   -3.5316 C.3     1  UNL1        0.2383
      7 C          21.2451   70.2924   -3.6519 C.3     1  UNL1        0.1895
      8 O          21.1963   69.1892   -2.7443 O.3     1  UNL1       -0.3779
      9 C          22.3605   71.2916   -3.2485 C.3     1  UNL1        0.1713
     10 C          21.7230   72.6752   -3.4740 C.3     1  UNL1        0.1764
     11 O          20.4012   72.4601   -3.9982 O.3     1  UNL1       -0.3308
     12 O          22.7168   71.1152   -1.8760 O.3     1  UNL1       -0.3794
     13 H          22.0150   68.6891   -2.8690 H       1  UNL1        0.2106
     14 H          23.0532   70.2131   -1.7877 H       1  UNL1        0.2105
     15 N          18.9007   70.6393   -4.3836 N.ar    1  UNL1       -0.2551
     16 C          18.0525   69.7163   -3.8970 C.ar    1  UNL1        0.3323
     17 N          17.0596   69.2199   -4.6583 N.ar    1  UNL1       -0.2743
     18 C          16.9054   69.6353   -5.9303 C.ar    1  UNL1        0.2626
     19 C          17.7951   70.6028   -6.4582 C.ar    1  UNL1        0.0795
     20 C          18.7795   71.0872   -5.6716 C.ar    1  UNL1        0.0869
     21 O          18.1787   69.3324   -2.7512 O.2     1  UNL1       -0.2464
     22 O          16.0099   69.1830   -6.6217 O.2     1  UNL1       -0.2670
     23 H          16.4538   68.5575   -4.2894 H       1  UNL1        0.1734
     24 O          24.0491   73.7485   -1.5981 O.3     1  UNL1       -0.2703
     25 P          23.6996   74.9710   -0.6116 P.3     1  UNL1        0.2208
     26 O          24.8776   75.8578   -0.4889 O.2     1  UNL1       -0.5170
     27 O          22.4598   75.8064   -1.2109 O.3     1  UNL1       -0.4371
     28 O          23.3063   74.3959    0.8391 O.3     1  UNL1       -0.2858
     29 C          21.9415   73.9817    0.7652 C.3     1  UNL1        0.2704
     30 C          21.1959   74.4601    2.0121 C.3     1  UNL1        0.1967
     31 C          21.8730   73.8724    3.2540 C.3     1  UNL1        0.1715
     32 C          21.9611   72.3508    3.0904 C.3     1  UNL1        0.1694
     33 C          22.6509   72.0322    1.7616 C.3     1  UNL1        0.1761
     34 O          21.2339   75.8870    2.0744 O.3     1  UNL1       -0.3775
     35 O          21.1031   74.1890    4.4157 O.3     1  UNL1       -0.3794
     36 O          20.6464   71.7926    3.0976 O.3     1  UNL1       -0.3794
     37 O          21.8821   72.5597    0.6815 O.3     1  UNL1       -0.3258
     38 H          20.8046   76.2128    1.2717 H       1  UNL1        0.2106
     39 H          21.0643   75.1521    4.4718 H       1  UNL1        0.2105
     40 H          20.2494   72.0224    3.9479 H       1  UNL1        0.2105
     41 C          22.7748   70.5151    1.6041 C.3     1  UNL1        0.1693
     42 O          21.6533   70.0200    0.8705 O.3     1  UNL1       -0.3794
     43 H          21.7699   69.0631    0.7929 H       1  UNL1        0.2105
@<TRIPOS>BOND
     1    15    16   ar
     2    15    20   ar
     3    15     6    1
     4    16    17   ar
     5    16    21    2
     6    17    18   ar
     7    17    23    1
     8    18    19   ar
     9    18    22    2
    10    19    20   ar
    11     6     7    1
    12     6    11    1
    13     7     8    1
    14     7     9    1
    15     8    13    1
    16     9    10    1
    17     9    12    1
    18    10    11    1
    19    10     5    1
    20    12    14    1
    21     5     4    1
    22     4     1    1
    23     1     2    2
    24     1     3    1
    25     1    24    1
    26    24    25    1
    27    25    26    2
    28    25    27    1
    29    25    28    1
    30    28    29    1
    31    29    30    1
    32    29    37    1
    33    30    31    1
    34    30    34    1
    35    31    32    1
    36    31    35    1
    37    32    33    1
    38    32    36    1
    39    33    41    1
    40    33    37    1
    41    41    42    1
    42    34    38    1
    43    35    39    1
    44    36    40    1
    45    42    43    1
@<TRIPOS>MOLECULE
GDU
 43 45 0 0 0
SMALL
GASTEIGER

@<TRIPOS>ATOM
      1 P          22.1067   70.3042    0.0023 P.3     1  UNL1        0.2189
      2 O          23.1235   71.2223   -0.5568 O.2     1  UNL1       -0.5170
      3 O          22.7663   68.8549    0.2423 O.3     1  UNL1       -0.4371
      4 O          21.5682   70.8870    1.4013 O.3     1  UNL1       -0.3112
      5 C          22.0263   72.2370    1.4909 C.3     1  UNL1        0.1811
      6 C          20.2885   74.2724    3.8919 C.3     1  UNL1        0.2383
      7 C          21.1696   75.2719    3.0997 C.3     1  UNL1        0.1895
      8 O          20.5480   76.5572    3.0321 O.3     1  UNL1       -0.3779
      9 C          21.2292   74.6118    1.6975 C.3     1  UNL1        0.1713
     10 C          20.8819   73.1354    1.9639 C.3     1  UNL1        0.1764
     11 O          20.6974   72.9854    3.3822 O.3     1  UNL1       -0.3308
     12 O          20.2694   75.2087    0.8232 O.3     1  UNL1       -0.3794
     13 H          21.1443   77.1293    2.5291 H       1  UNL1        0.2106
     14 H          20.5059   76.1427    0.7434 H       1  UNL1        0.2105
     15 N          20.5589   74.3683    5.3273 N.ar    1  UNL1       -0.2551
     16 C          21.7687   74.0233    5.8025 C.ar    1  UNL1        0.3323
     17 N          22.0444   74.1056    7.1174 N.ar    1  UNL1       -0.2743
     18 C          21.1039   74.5280    7.9842 C.ar    1  UNL1        0.2626
     19 C          19.8232   74.8893    7.4987 C.ar    1  UNL1        0.0795
     20 C          19.5748   74.8013    6.1747 C.ar    1  UNL1        0.0869
     21 O          22.6273   73.6410    5.0326 O.2     1  UNL1       -0.2464
     22 O          21.3509   74.5983    9.1752 O.2     1  UNL1       -0.2670
     23 H          22.9242   73.8566    7.4424 H       1  UNL1        0.1734
     24 O          20.8801   70.1693   -1.0320 O.3     1  UNL1       -0.2703
     25 P          21.3427   70.8805   -2.3996 P.3     1  UNL1        0.2208
     26 O          21.5126   72.3318   -2.1677 O.2     1  UNL1       -0.5170
     27 O          22.7416   70.2480   -2.8865 O.3     1  UNL1       -0.4371
     28 O          20.2250   70.6444   -3.5332 O.3     1  UNL1       -0.2858
     29 C          18.9967   71.1606   -3.0188 C.3     1  UNL1        0.2704
     30 C          17.9068   70.0942   -3.1376 C.3     1  UNL1        0.1967
     31 C          17.7534   69.7000   -4.6099 C.3     1  UNL1        0.1715
     32 C          17.5163   70.9698   -5.4351 C.3     1  UNL1        0.1694
     33 C          18.6379   71.9697   -5.1432 C.3     1  UNL1        0.1761
     34 O          18.2737   68.9471   -2.3691 O.3     1  UNL1       -0.3775
     35 O          16.6411   68.8146   -4.7564 O.3     1  UNL1       -0.3794
     36 O          16.2561   71.5413   -5.0812 O.3     1  UNL1       -0.3794
     37 O          18.6229   72.3197   -3.7600 O.3     1  UNL1       -0.3258
     38 H          18.3660   69.2428   -1.4532 H       1  UNL1        0.2106
     39 H          16.8276   68.0386   -4.2130 H       1  UNL1        0.2105
     40 H          15.5827   70.8765   -5.2760 H       1  UNL1        0.2105
     41 C          18.4294   73.2283   -5.9884 C.3     1  UNL1        0.1693
     42 O          17.6276   72.9092   -7.1269 O.3     1  UNL1       -0.3794
     43 H          17.5196   73.7272   -7.6313 H       1  UNL1        0.2105
@<TRIPOS>BOND
     1    15    16   ar
     2    15    20   ar
     3    15     6    1
     4    16    17   ar
     5    16    21    2
     6    17    18   ar
     7    17    23    1
     8    18    19   ar
     9    18    22    2
    10    19    20   ar
    11     6     7    1
    12     6    11    1
    13     7     8    1
    14     7     9    1
    15     8    13    1
    16     9    10    1
    17     9    12    1
    18    10    11    1
    19    10     5    1
    20    12    14    1
    21     5     4    1
    22     4     1    1
    23     1     2    2
    24     1     3    1
    25     1    24    1
    26    24    25    1
    27    25    26    2
    28    25    27    1
    29    25    28    1
    30    28    29    1
    31    29    30    1
    32    29    37    1
    33    30    31    1
    34    30    34    1
    35    31    32    1
    36    31    35    1
    37    32    33    1
    38    32    36    1
    39    33    41    1
    40    33    37    1
    41    41    42    1
    42    34    38    1
    43    35    39    1
    44    36    40    1
    45    42    43    1
@<TRIPOS>MOLECULE
GDU
 43 45 0 0 0
SMALL
GASTEIGER

@<TRIPOS>ATOM
      1 P          22.0551   70.4801   -0.0907 P.3     1  UNL1        0.2189
      2 O          23.0999   71.3442   -0.6835 O.2     1  UNL1       -0.5170
      3 O          22.7371   69.1547    0.5185 O.3     1  UNL1       -0.4371
      4 O          21.2971   71.2805    1.0805 O.3     1  UNL1       -0.3112
      5 C          22.2562   71.5071    2.1146 C.3     1  UNL1        0.1811
      6 C          21.3424   74.8983    2.8837 C.3     1  UNL1        0.2383
      7 C          21.9505   74.3510    4.2004 C.3     1  UNL1        0.1895
      8 O          22.5842   75.3957    4.9422 O.3     1  UNL1       -0.3779
      9 C          22.9958   73.3321    3.6765 C.3     1  UNL1        0.1713
     10 C          22.5195   73.0080    2.2484 C.3     1  UNL1        0.1764
     11 O          21.3017   73.7394    2.0241 O.3     1  UNL1       -0.3308
     12 O          24.2985   73.9190    3.6555 O.3     1  UNL1       -0.3794
     13 H          22.9397   74.9909    5.7458 H       1  UNL1        0.2106
     14 H          24.5150   74.1532    4.5682 H       1  UNL1        0.2105
     15 N          19.9932   75.4180    3.1130 N.ar    1  UNL1       -0.2551
     16 C          19.0694   74.6382    3.7018 C.ar    1  UNL1        0.3323
     17 N          17.8227   75.0930    3.9273 N.ar    1  UNL1       -0.2743
     18 C          17.4763   76.3404    3.5556 C.ar    1  UNL1        0.2626
     19 C          18.4374   77.1711    2.9292 C.ar    1  UNL1        0.0795
     20 C          19.6817   76.6914    2.7188 C.ar    1  UNL1        0.0869
     21 O          19.3673   73.5108    4.0431 O.2     1  UNL1       -0.2464
     22 O          16.3468   76.7512    3.7550 O.2     1  UNL1       -0.2670
     23 H          17.1699   74.5179    4.3573 H       1  UNL1        0.1734
     24 O          20.9961   70.0622   -1.2293 O.3     1  UNL1       -0.2703
     25 P          21.3776   70.8979   -2.5507 P.3     1  UNL1        0.2208
     26 O          21.4271   72.3402   -2.2248 O.2     1  UNL1       -0.5170
     27 O          22.8181   70.4203   -3.0902 O.3     1  UNL1       -0.4371
     28 O          20.2681   70.6415   -3.6880 O.3     1  UNL1       -0.2858
     29 C          19.0537   71.2327   -3.2238 C.3     1  UNL1        0.2704
     30 C          17.9392   70.1854   -3.2391 C.3     1  UNL1        0.1967
     31 C          17.7719   69.6561   -4.6667 C.3     1  UNL1        0.1715
     32 C          17.5612   70.8465   -5.6092 C.3     1  UNL1        0.1694
     33 C          18.7065   71.8434   -5.4154 C.3     1  UNL1        0.1761
     34 O          18.2823   69.1087   -2.3649 O.3     1  UNL1       -0.3775
     35 O          16.6391   68.7868   -4.7268 O.3     1  UNL1       -0.3794
     36 O          16.3157   71.4782   -5.3101 O.3     1  UNL1       -0.3794
     37 O          18.7041   72.3241   -4.0719 O.3     1  UNL1       -0.3258
     38 H          18.3844   69.4882   -1.4815 H       1  UNL1        0.2106
     39 H          16.8096   68.0620   -4.1120 H       1  UNL1        0.2105
     40 H          15.6266   70.8136   -5.4397 H       1  UNL1        0.2105
     41 C          18.5241   73.0202   -6.3767 C.3     1  UNL1        0.1693
     42 O          17.6233   72.6462   -7.4206 O.3     1  UNL1       -0.3794
     43 H          17.5353   73.4136   -8.0025 H       1  UNL1        0.2105
@<TRIPOS>BOND
     1    15    16   ar
     2    15    20   ar
     3    15     6    1
     4    16    17   ar
     5    16    21    2
     6    17    18   ar
     7    17    23    1
     8    18    19   ar
     9    18    22    2
    10    19    20   ar
    11     6     7    1
    12     6    11    1
    13     7     8    1
    14     7     9    1
    15     8    13    1
    16     9    10    1
    17     9    12    1
    18    10    11    1
    19    10     5    1
    20    12    14    1
    21     5     4    1
    22     4     1    1
    23     1     2    2
    24     1     3    1
    25     1    24    1
    26    24    25    1
    27    25    26    2
    28    25    27    1
    29    25    28    1
    30    28    29    1
    31    29    30    1
    32    29    37    1
    33    30    31    1
    34    30    34    1
    35    31    32    1
    36    31    35    1
    37    32    33    1
    38    32    36    1
    39    33    41    1
    40    33    37    1
    41    41    42    1
    42    34    38    1
    43    35    39    1
    44    36    40    1
    45    42    43    1
@<TRIPOS>MOLECULE
GDU
 43 45 0 0 0
SMALL
GASTEIGER

@<TRIPOS>ATOM
      1 P          23.0590   74.1360   -4.0506 P.3     1  UNL1        0.2189
      2 O          23.6111   74.9684   -5.1423 O.2     1  UNL1       -0.5170
      3 O          23.8271   72.7212   -4.0135 O.3     1  UNL1       -0.4371
      4 O          23.2588   74.8921   -2.6451 O.3     1  UNL1       -0.3112
      5 C          22.2375   74.4132   -1.7687 C.3     1  UNL1        0.1811
      6 C          22.4978   72.5969    1.3233 C.3     1  UNL1        0.2383
      7 C          21.4908   71.7787    0.4750 C.3     1  UNL1        0.1895
      8 O          21.5671   70.3875    0.7944 O.3     1  UNL1       -0.3779
      9 C          21.9920   72.0431   -0.9687 C.3     1  UNL1        0.1713
     10 C          22.8165   73.3381   -0.8473 C.3     1  UNL1        0.1764
     11 O          22.7366   73.7729    0.5212 O.3     1  UNL1       -0.3308
     12 O          22.8101   70.9616   -1.4194 O.3     1  UNL1       -0.3794
     13 H          20.9188   69.9371    0.2352 H       1  UNL1        0.2106
     14 H          22.2544   70.1704   -1.4175 H       1  UNL1        0.2105
     15 N          21.9110   72.9629    2.6134 N.ar    1  UNL1       -0.2551
     16 C          20.7881   73.7019    2.6496 C.ar    1  UNL1        0.3323
     17 N          20.2263   74.0490    3.8226 N.ar    1  UNL1       -0.2743
     18 C          20.7890   73.6676    4.9853 C.ar    1  UNL1        0.2626
     19 C          21.9751   72.8937    4.9626 C.ar    1  UNL1        0.0795
     20 C          22.5153   72.5559    3.7724 C.ar    1  UNL1        0.0869
     21 O          20.2688   74.0529    1.6089 O.2     1  UNL1       -0.2464
     22 O          20.2838   73.9853    6.0476 O.2     1  UNL1       -0.2670
     23 H          19.4134   74.5791    3.8299 H       1  UNL1        0.1734
     24 O          21.4894   73.8863   -4.3087 O.3     1  UNL1       -0.2703
     25 P          21.3768   72.6757   -5.3630 P.3     1  UNL1        0.2208
     26 O          22.5927   72.6406   -6.2053 O.2     1  UNL1       -0.5170
     27 O          21.2356   71.2825   -4.5671 O.3     1  UNL1       -0.4371
     28 O          20.0831   72.8931   -6.2953 O.3     1  UNL1       -0.2858
     29 C          19.5521   71.5976   -6.5770 C.3     1  UNL1        0.2704
     30 C          19.5669   71.3587   -8.0876 C.3     1  UNL1        0.1967
     31 C          18.7328   72.4457   -8.7725 C.3     1  UNL1        0.1715
     32 C          17.3413   72.4733   -8.1301 C.3     1  UNL1        0.1694
     33 C          17.4955   72.6298   -6.6152 C.3     1  UNL1        0.1761
     34 O          20.9116   71.4117   -8.5674 O.3     1  UNL1       -0.3775
     35 O          18.6149   72.1536  -10.1665 O.3     1  UNL1       -0.3794
     36 O          16.6560   71.2547   -8.4221 O.3     1  UNL1       -0.3794
     37 O          18.2156   71.5169   -6.0872 O.3     1  UNL1       -0.3258
     38 H          21.4002   70.7170   -8.1053 H       1  UNL1        0.2106
     39 H          19.5112   72.1345  -10.5252 H       1  UNL1        0.2105
     40 H          16.5872   71.1958   -9.3840 H       1  UNL1        0.2105
     41 C          16.1105   72.6929   -5.9672 C.3     1  UNL1        0.1693
     42 O          16.0011   71.6675   -4.9784 O.3     1  UNL1       -0.3794
     43 H          15.1165   71.7421   -4.5946 H       1  UNL1        0.2105
@<TRIPOS>BOND
     1    15    16   ar
     2    15    20   ar
     3    15     6    1
     4    16    17   ar
     5    16    21    2
     6    17    18   ar
     7    17    23    1
     8    18    19   ar
     9    18    22    2
    10    19    20   ar
    11     6     7    1
    12     6    11    1
    13     7     8    1
    14     7     9    1
    15     8    13    1
    16     9    10    1
    17     9    12    1
    18    10    11    1
    19    10     5    1
    20    12    14    1
    21     5     4    1
    22     4     1    1
    23     1     2    2
    24     1     3    1
    25     1    24    1
    26    24    25    1
    27    25    26    2
    28    25    27    1
    29    25    28    1
    30    28    29    1
    31    29    30    1
    32    29    37    1
    33    30    31    1
    34    30    34    1
    35    31    32    1
    36    31    35    1
    37    32    33    1
    38    32    36    1
    39    33    41    1
    40    33    37    1
    41    41    42    1
    42    34    38    1
    43    35    39    1
    44    36    40    1
    45    42    43    1
