@<TRIPOS>MOLECULE
UD1
 46 48 0 0 0
SMALL
GASTEIGER

@<TRIPOS>ATOM
      1 P          22.2055   70.9355   -2.5619 P.3     1  UNL1        0.2189
      2 O          23.4756   70.6466   -3.2635 O.2     1  UNL1       -0.5170
      3 O          21.5964   69.5677   -1.9697 O.3     1  UNL1       -0.4371
      4 O          21.1569   71.5848   -3.5972 O.3     1  UNL1       -0.3112
      5 C          20.1821   72.2795   -2.8178 C.3     1  UNL1        0.1811
      6 C          17.9252   71.3257   -5.4492 C.3     1  UNL1        0.2383
      7 C          18.0237   70.0695   -4.5479 C.3     1  UNL1        0.1895
      8 O          16.8057   69.3245   -4.5746 O.3     1  UNL1       -0.3779
      9 C          18.2613   70.6914   -3.1472 C.3     1  UNL1        0.1713
     10 C          18.8011   72.1024   -3.4508 C.3     1  UNL1        0.1764
     11 O          18.8986   72.2268   -4.8799 O.3     1  UNL1       -0.3308
     12 O          17.0345   70.7643   -2.4175 O.3     1  UNL1       -0.3794
     13 H          16.9326   68.5592   -3.9969 H       1  UNL1        0.2106
     14 H          16.7181   69.8572   -2.3119 H       1  UNL1        0.2105
     15 N          18.2706   71.0003   -6.8334 N.ar    1  UNL1       -0.2551
     16 C          17.2997   70.6682   -7.7020 C.ar    1  UNL1        0.3323
     17 N          17.5880   70.3679   -8.9823 N.ar    1  UNL1       -0.2743
     18 C          18.8653   70.3869   -9.4136 C.ar    1  UNL1        0.2626
     19 C          19.8979   70.7289   -8.5083 C.ar    1  UNL1        0.0795
     20 C          19.5801   71.0309   -7.2311 C.ar    1  UNL1        0.0869
     21 O          16.1429   70.6467   -7.3280 O.2     1  UNL1       -0.2464
     22 O          19.1275   70.1109  -10.5697 O.2     1  UNL1       -0.2670
     23 H          16.8746   70.1352   -9.5963 H       1  UNL1        0.1734
     24 O          22.4798   71.9674   -1.3583 O.3     1  UNL1       -0.2703
     25 P          22.4669   71.1085    0.0024 P.3     1  UNL1        0.2208
     26 O          23.5300   70.0812   -0.0528 O.2     1  UNL1       -0.5170
     27 O          21.0358   70.3903    0.1709 O.3     1  UNL1       -0.4371
     28 O          22.7273   72.0834    1.2563 O.3     1  UNL1       -0.2865
     29 C          21.9950   73.2845    1.0067 C.3     1  UNL1        0.2611
     30 C          22.9678   74.4626    0.9308 C.3     1  UNL1        0.1582
     31 C          23.7376   74.5629    2.2525 C.3     1  UNL1        0.1625
     32 C          22.7285   74.6238    3.4040 C.3     1  UNL1        0.1686
     33 C          21.7755   73.4316    3.2951 C.3     1  UNL1        0.1760
     34 O          24.5394   75.7456    2.2510 O.3     1  UNL1       -0.3801
     35 O          23.4230   74.5698    4.6515 O.3     1  UNL1       -0.3794
     36 O          21.0600   73.4974    2.0621 O.3     1  UNL1       -0.3263
     37 H          25.0051   75.7684    3.0983 H       1  UNL1        0.2105
     38 H          22.7517   74.6099    5.3474 H       1  UNL1        0.2105
     39 C          23.9910   75.1484   -1.1709 C.2     1  UNL1        0.2231
     40 C          24.9601   74.9290   -2.3045 C.3     1  UNL1        0.0946
     41 N          23.9094   74.2502   -0.1704 N.am    1  UNL1       -0.2994
     42 O          23.2840   76.1333   -1.1597 O.2     1  UNL1       -0.2751
     43 H          24.4749   73.4618   -0.1793 H       1  UNL1        0.1496
     44 C          20.7835   73.4652    4.4596 C.3     1  UNL1        0.1693
     45 O          21.4144   72.9599    5.6380 O.3     1  UNL1       -0.3794
     46 H          20.7569   72.9980    6.3457 H       1  UNL1        0.2105
@<TRIPOS>BOND
     1    29    30    1
     2    29    28    1
     3    29    36    1
     4    30    31    1
     5    30    41    1
     6    31    32    1
     7    31    34    1
     8    32    33    1
     9    32    35    1
    10    33    44    1
    11    33    36    1
    12    44    45    1
    13    39    40    1
    14    39    41   am
    15    39    42    2
    16    41    43    1
    17    28    25    1
    18    34    37    1
    19    35    38    1
    20    45    46    1
    21    15    16   ar
    22    15    20   ar
    23    15     6    1
    24    16    17   ar
    25    16    21    2
    26    17    18   ar
    27    17    23    1
    28    18    19   ar
    29    18    22    2
    30    19    20   ar
    31     6     7    1
    32     6    11    1
    33     7     8    1
    34     7     9    1
    35     8    13    1
    36     9    10    1
    37     9    12    1
    38    10    11    1
    39    10     5    1
    40    12    14    1
    41     5     4    1
    42     4     1    1
    43     1     2    2
    44     1     3    1
    45     1    24    1
    46    24    25    1
    47    25    26    2
    48    25    27    1
@<TRIPOS>MOLECULE
UD1
 46 48 0 0 0
SMALL
GASTEIGER

@<TRIPOS>ATOM
      1 P          21.7626   70.3700   -0.4398 P.3     1  UNL1        0.2189
      2 O          23.0032   70.6571   -1.1930 O.2     1  UNL1       -0.5170
      3 O          22.0525   69.2265    0.6561 O.3     1  UNL1       -0.4371
      4 O          20.6235   69.8602   -1.4574 O.3     1  UNL1       -0.3112
      5 C          20.8753   70.4947   -2.7121 C.3     1  UNL1        0.1811
      6 C          18.5283   71.4228   -5.2729 C.3     1  UNL1        0.2383
      7 C          18.0242   70.0492   -4.7637 C.3     1  UNL1        0.1895
      8 O          16.6039   69.9525   -4.8753 O.3     1  UNL1       -0.3779
      9 C          18.4621   70.0727   -3.2761 C.3     1  UNL1        0.1713
     10 C          19.5841   71.1280   -3.2327 C.3     1  UNL1        0.1764
     11 O          19.7793   71.6029   -4.5757 O.3     1  UNL1       -0.3308
     12 O          17.3700   70.4595   -2.4391 O.3     1  UNL1       -0.3794
     13 H          16.3557   69.0783   -4.5441 H       1  UNL1        0.2106
     14 H          16.6793   69.7935   -2.5557 H       1  UNL1        0.2105
     15 N          18.7435   71.3932   -6.7200 N.ar    1  UNL1       -0.2551
     16 C          17.8635   71.9978   -7.5370 C.ar    1  UNL1        0.3323
     17 N          18.0383   71.9898   -8.8718 N.ar    1  UNL1       -0.2743
     18 C          19.1016   71.3628   -9.4141 C.ar    1  UNL1        0.2626
     19 C          20.0326   70.7172   -8.5660 C.ar    1  UNL1        0.0795
     20 C          19.8359   70.7452   -7.2304 C.ar    1  UNL1        0.0869
     21 O          16.8995   72.5675   -7.0629 O.2     1  UNL1       -0.2464
     22 O          19.2581   71.3509  -10.6210 O.2     1  UNL1       -0.2670
     23 H          17.3961   72.4351   -9.4458 H       1  UNL1        0.1734
     24 O          21.2616   71.7084    0.2994 O.3     1  UNL1       -0.2703
     25 P          22.0687   71.8023    1.6883 P.3     1  UNL1        0.2208
     26 O          22.8792   70.5782    1.8714 O.2     1  UNL1       -0.5170
     27 O          21.0261   71.9420    2.9072 O.3     1  UNL1       -0.4371
     28 O          23.0368   73.0878    1.6621 O.3     1  UNL1       -0.2865
     29 C          22.2417   74.2132    2.0394 C.3     1  UNL1        0.2611
     30 C          22.4546   75.3431    1.0304 C.3     1  UNL1        0.1582
     31 C          23.9411   75.7160    1.0017 C.3     1  UNL1        0.1625
     32 C          24.3967   76.0246    2.4319 C.3     1  UNL1        0.1686
     33 C          24.0399   74.8418    3.3347 C.3     1  UNL1        0.1760
     34 O          24.1302   76.8670    0.1765 O.3     1  UNL1       -0.3801
     35 O          25.8104   76.2313    2.4490 O.3     1  UNL1       -0.3794
     36 O          22.6259   74.6497    3.3414 O.3     1  UNL1       -0.3263
     37 H          25.0767   77.0656    0.1868 H       1  UNL1        0.2105
     38 H          26.0542   76.4214    3.3660 H       1  UNL1        0.2105
     39 C          22.9396   74.3857   -1.1565 C.2     1  UNL1        0.2231
     40 C          22.5071   73.9276   -2.5259 C.3     1  UNL1        0.0946
     41 N          22.0349   74.8975   -0.2999 N.am    1  UNL1       -0.2994
     42 O          24.1025   74.2941   -0.8258 O.2     1  UNL1       -0.2751
     43 H          21.1042   74.9711   -0.5644 H       1  UNL1        0.1496
     44 C          24.5200   75.1263    4.7594 C.3     1  UNL1        0.1693
     45 O          25.8341   74.5932    4.9350 O.3     1  UNL1       -0.3794
     46 H          26.0981   74.7932    5.8433 H       1  UNL1        0.2105
@<TRIPOS>BOND
     1    29    30    1
     2    29    28    1
     3    29    36    1
     4    30    31    1
     5    30    41    1
     6    31    32    1
     7    31    34    1
     8    32    33    1
     9    32    35    1
    10    33    44    1
    11    33    36    1
    12    44    45    1
    13    39    40    1
    14    39    41   am
    15    39    42    2
    16    41    43    1
    17    28    25    1
    18    34    37    1
    19    35    38    1
    20    45    46    1
    21    15    16   ar
    22    15    20   ar
    23    15     6    1
    24    16    17   ar
    25    16    21    2
    26    17    18   ar
    27    17    23    1
    28    18    19   ar
    29    18    22    2
    30    19    20   ar
    31     6     7    1
    32     6    11    1
    33     7     8    1
    34     7     9    1
    35     8    13    1
    36     9    10    1
    37     9    12    1
    38    10    11    1
    39    10     5    1
    40    12    14    1
    41     5     4    1
    42     4     1    1
    43     1     2    2
    44     1     3    1
    45     1    24    1
    46    24    25    1
    47    25    26    2
    48    25    27    1
@<TRIPOS>MOLECULE
UD1
 46 48 0 0 0
SMALL
GASTEIGER

@<TRIPOS>ATOM
      1 P          22.1564   71.1196   -0.6177 P.3     1  UNL1        0.2189
      2 O          23.2005   70.3833   -1.3637 O.2     1  UNL1       -0.5170
      3 O          21.2691   70.0788    0.2321 O.3     1  UNL1       -0.4371
      4 O          21.2105   71.9072   -1.6558 O.3     1  UNL1       -0.3112
      5 C          20.9005   70.9931   -2.7088 C.3     1  UNL1        0.1811
      6 C          18.3443   71.0556   -5.2365 C.3     1  UNL1        0.2383
      7 C          18.1339   69.7062   -4.5050 C.3     1  UNL1        0.1895
      8 O          16.7574   69.3265   -4.5188 O.3     1  UNL1       -0.3779
      9 C          18.6014   70.0404   -3.0645 C.3     1  UNL1        0.1713
     10 C          19.4958   71.2828   -3.2399 C.3     1  UNL1        0.1764
     11 O          19.5554   71.5741   -4.6466 O.3     1  UNL1       -0.3308
     12 O          17.4793   70.3374   -2.2306 O.3     1  UNL1       -0.3794
     13 H          16.6949   68.4826   -4.0504 H       1  UNL1        0.2106
     14 H          16.9293   69.5429   -2.2090 H       1  UNL1        0.2105
     15 N          18.5193   70.8453   -6.6741 N.ar    1  UNL1       -0.2551
     16 C          17.4400   70.7539   -7.4704 C.ar    1  UNL1        0.3323
     17 N          17.5712   70.5646   -8.7967 N.ar    1  UNL1       -0.2743
     18 C          18.7960   70.4536   -9.3494 C.ar    1  UNL1        0.2626
     19 C          19.9407   70.5420   -8.5218 C.ar    1  UNL1        0.0795
     20 C          19.7805   70.7375   -7.1954 C.ar    1  UNL1        0.0869
     21 O          16.3287   70.8521   -6.9868 O.2     1  UNL1       -0.2464
     22 O          18.9157   70.2776  -10.5477 O.2     1  UNL1       -0.2670
     23 H          16.7819   70.5058   -9.3568 H       1  UNL1        0.1734
     24 O          22.8518   72.1731    0.3800 O.3     1  UNL1       -0.2703
     25 P          21.6875   72.7563    1.3253 P.3     1  UNL1        0.2208
     26 O          21.3892   71.7824    2.3983 O.2     1  UNL1       -0.5170
     27 O          20.3610   73.0112    0.4491 O.3     1  UNL1       -0.4371
     28 O          22.1712   74.1447    1.9802 O.3     1  UNL1       -0.2865
     29 C          21.3036   74.4065    3.0847 C.3     1  UNL1        0.2611
     30 C          20.6683   75.7873    2.9115 C.3     1  UNL1        0.1582
     31 C          21.7770   76.8428    2.8323 C.3     1  UNL1        0.1625
     32 C          22.6856   76.6920    4.0570 C.3     1  UNL1        0.1686
     33 C          23.1712   75.2435    4.1419 C.3     1  UNL1        0.1760
     34 O          21.1957   78.1479    2.8210 O.3     1  UNL1       -0.3801
     35 O          23.8079   77.5672    3.9300 O.3     1  UNL1       -0.3794
     36 O          22.0543   74.3688    4.2964 O.3     1  UNL1       -0.3263
     37 H          21.9268   78.7790    2.7703 H       1  UNL1        0.2105
     38 H          24.3527   77.4398    4.7196 H       1  UNL1        0.2105
     39 C          20.4123   76.3065    0.5453 C.2     1  UNL1        0.2231
     40 C          19.5986   76.3322   -0.7234 C.3     1  UNL1        0.0946
     41 N          19.8784   75.8120    1.6787 N.am    1  UNL1       -0.2994
     42 O          21.5478   76.7317    0.5460 O.2     1  UNL1       -0.2751
     43 H          18.9696   75.4719    1.6785 H       1  UNL1        0.1496
     44 C          24.1058   75.0899    5.3436 C.3     1  UNL1        0.1693
     45 O          25.0650   74.0655    5.0738 O.3     1  UNL1       -0.3794
     46 H          25.6324   74.0009    5.8538 H       1  UNL1        0.2105
@<TRIPOS>BOND
     1    29    30    1
     2    29    28    1
     3    29    36    1
     4    30    31    1
     5    30    41    1
     6    31    32    1
     7    31    34    1
     8    32    33    1
     9    32    35    1
    10    33    44    1
    11    33    36    1
    12    44    45    1
    13    39    40    1
    14    39    41   am
    15    39    42    2
    16    41    43    1
    17    28    25    1
    18    34    37    1
    19    35    38    1
    20    45    46    1
    21    15    16   ar
    22    15    20   ar
    23    15     6    1
    24    16    17   ar
    25    16    21    2
    26    17    18   ar
    27    17    23    1
    28    18    19   ar
    29    18    22    2
    30    19    20   ar
    31     6     7    1
    32     6    11    1
    33     7     8    1
    34     7     9    1
    35     8    13    1
    36     9    10    1
    37     9    12    1
    38    10    11    1
    39    10     5    1
    40    12    14    1
    41     5     4    1
    42     4     1    1
    43     1     2    2
    44     1     3    1
    45     1    24    1
    46    24    25    1
    47    25    26    2
    48    25    27    1
@<TRIPOS>MOLECULE
UD1
 46 48 0 0 0
SMALL
GASTEIGER

@<TRIPOS>ATOM
      1 P          22.0679   74.0540   -6.1220 P.3     1  UNL1        0.2189
      2 O          23.0081   75.1939   -6.0490 O.2     1  UNL1       -0.5170
      3 O          22.8341   72.7626   -6.7032 O.3     1  UNL1       -0.4371
      4 O          20.8416   74.4320   -7.0946 O.3     1  UNL1       -0.3112
      5 C          21.0403   73.7100   -8.3110 C.3     1  UNL1        0.1811
      6 C          18.5654   71.3268   -7.2517 C.3     1  UNL1        0.2383
      7 C          17.8411   72.6947   -7.1841 C.3     1  UNL1        0.1895
      8 O          16.4450   72.5473   -7.4455 O.3     1  UNL1       -0.3779
      9 C          18.5362   73.4878   -8.3211 C.3     1  UNL1        0.1713
     10 C          19.8717   72.7483   -8.5312 C.3     1  UNL1        0.1764
     11 O          19.9282   71.6818   -7.5686 O.3     1  UNL1       -0.3308
     12 O          17.7453   73.4535   -9.5111 O.3     1  UNL1       -0.3794
     13 H          16.0544   73.4303   -7.3880 H       1  UNL1        0.2106
     14 H          16.9028   73.8767   -9.2987 H       1  UNL1        0.2105
     15 N          18.4977   70.6389   -5.9619 N.ar    1  UNL1       -0.2551
     16 C          17.4115   69.9100   -5.6517 C.ar    1  UNL1        0.3323
     17 N          17.3237   69.2634   -4.4742 N.ar    1  UNL1       -0.2743
     18 C          18.3274   69.3452   -3.5777 C.ar    1  UNL1        0.2626
     19 C          19.4742   70.1140   -3.8889 C.ar    1  UNL1        0.0795
     20 C          19.5384   70.7480   -5.0794 C.ar    1  UNL1        0.0869
     21 O          16.4979   69.8266   -6.4500 O.2     1  UNL1       -0.2464
     22 O          18.2471   68.7649   -2.5108 O.2     1  UNL1       -0.2670
     23 H          16.5348   68.7383   -4.2690 H       1  UNL1        0.1734
     24 O          21.5046   73.7279   -4.6505 O.3     1  UNL1       -0.2703
     25 P          22.7707   73.3073   -3.7508 P.3     1  UNL1        0.2208
     26 O          23.9004   74.2203   -4.0317 O.2     1  UNL1       -0.5170
     27 O          23.2021   71.7967   -4.1029 O.3     1  UNL1       -0.4371
     28 O          22.3787   73.4025   -2.1926 O.3     1  UNL1       -0.2865
     29 C          21.1862   72.6353   -2.0176 C.3     1  UNL1        0.2611
     30 C          20.1733   73.4526   -1.2139 C.3     1  UNL1        0.1582
     31 C          20.7866   73.8165    0.1430 C.3     1  UNL1        0.1625
     32 C          21.2729   72.5314    0.8215 C.3     1  UNL1        0.1686
     33 C          22.2054   71.7851   -0.1349 C.3     1  UNL1        0.1760
     34 O          19.8001   74.4495    0.9600 O.3     1  UNL1       -0.3801
     35 O          21.9786   72.8611    2.0193 O.3     1  UNL1       -0.3794
     36 O          21.4959   71.4302   -1.3211 O.3     1  UNL1       -0.3263
     37 H          20.2279   74.6610    1.8012 H       1  UNL1        0.2105
     38 H          22.2670   72.0254    2.4130 H       1  UNL1        0.2105
     39 C          18.7200   74.7327   -2.6916 C.2     1  UNL1        0.2231
     40 C          18.3778   75.9926   -3.4451 C.3     1  UNL1        0.0946
     41 N          19.8401   74.6765   -1.9457 N.am    1  UNL1       -0.2994
     42 O          17.9871   73.7690   -2.7572 O.2     1  UNL1       -0.2751
     43 H          20.4270   75.4475   -1.8932 H       1  UNL1        0.1496
     44 C          22.7225   70.5160    0.5457 C.3     1  UNL1        0.1693
     45 O          21.6784   69.5416    0.5938 O.3     1  UNL1       -0.3794
     46 H          22.0448   68.7600    1.0291 H       1  UNL1        0.2105
@<TRIPOS>BOND
     1    29    30    1
     2    29    28    1
     3    29    36    1
     4    30    31    1
     5    30    41    1
     6    31    32    1
     7    31    34    1
     8    32    33    1
     9    32    35    1
    10    33    44    1
    11    33    36    1
    12    44    45    1
    13    39    40    1
    14    39    41   am
    15    39    42    2
    16    41    43    1
    17    28    25    1
    18    34    37    1
    19    35    38    1
    20    45    46    1
    21    15    16   ar
    22    15    20   ar
    23    15     6    1
    24    16    17   ar
    25    16    21    2
    26    17    18   ar
    27    17    23    1
    28    18    19   ar
    29    18    22    2
    30    19    20   ar
    31     6     7    1
    32     6    11    1
    33     7     8    1
    34     7     9    1
    35     8    13    1
    36     9    10    1
    37     9    12    1
    38    10    11    1
    39    10     5    1
    40    12    14    1
    41     5     4    1
    42     4     1    1
    43     1     2    2
    44     1     3    1
    45     1    24    1
    46    24    25    1
    47    25    26    2
    48    25    27    1
@<TRIPOS>MOLECULE
UD1
 46 48 0 0 0
SMALL
GASTEIGER

@<TRIPOS>ATOM
      1 P          22.8440   75.1379   -4.4532 P.3     1  UNL1        0.2189
      2 O          22.4117   75.9156   -3.2712 O.2     1  UNL1       -0.5170
      3 O          24.3750   75.4955   -4.8004 O.3     1  UNL1       -0.4371
      4 O          21.9088   75.5091   -5.7104 O.3     1  UNL1       -0.3112
      5 C          22.5560   74.9926   -6.8744 C.3     1  UNL1        0.1811
      6 C          19.5327   73.9153   -8.4949 C.3     1  UNL1        0.2383
      7 C          19.1512   75.2518   -7.8105 C.3     1  UNL1        0.1895
      8 O          18.1370   75.9333   -8.5495 O.3     1  UNL1       -0.3779
      9 C          20.4893   76.0344   -7.8559 C.3     1  UNL1        0.1713
     10 C          21.5582   74.9386   -8.0322 C.3     1  UNL1        0.1764
     11 O          20.8784   73.6716   -8.0332 O.3     1  UNL1       -0.3308
     12 O          20.5029   76.9384   -8.9629 O.3     1  UNL1       -0.3794
     13 H          17.9455   76.7526   -8.0726 H       1  UNL1        0.2106
     14 H          19.7764   77.5606   -8.8243 H       1  UNL1        0.2105
     15 N          18.6377   72.8391   -8.0679 N.ar    1  UNL1       -0.2551
     16 C          18.3861   71.8127   -8.8989 C.ar    1  UNL1        0.3323
     17 N          17.5701   70.8071   -8.5311 N.ar    1  UNL1       -0.2743
     18 C          16.9812   70.8189   -7.3183 C.ar    1  UNL1        0.2626
     19 C          17.2326   71.8964   -6.4359 C.ar    1  UNL1        0.0795
     20 C          18.0595   72.8893   -6.8282 C.ar    1  UNL1        0.0869
     21 O          18.9098   71.7877   -9.9960 O.2     1  UNL1       -0.2464
     22 O          16.2395   69.9127   -6.9866 O.2     1  UNL1       -0.2670
     23 H          17.4036   70.0722   -9.1414 H       1  UNL1        0.1734
     24 O          22.7176   73.5655   -4.1365 O.3     1  UNL1       -0.2703
     25 P          21.2010   73.3066   -3.6651 P.3     1  UNL1        0.2208
     26 O          20.5832   72.2800   -4.5330 O.2     1  UNL1       -0.5170
     27 O          20.3627   74.6767   -3.7754 O.3     1  UNL1       -0.4371
     28 O          21.1920   72.7950   -2.1390 O.3     1  UNL1       -0.2865
     29 C          22.4975   72.2830   -1.8658 C.3     1  UNL1        0.2611
     30 C          22.3818   70.8355   -1.3848 C.3     1  UNL1        0.1582
     31 C          21.5097   70.7941   -0.1249 C.3     1  UNL1        0.1625
     32 C          22.0828   71.7781    0.9005 C.3     1  UNL1        0.1686
     33 C          22.2182   73.1554    0.2478 C.3     1  UNL1        0.1760
     34 O          21.5162   69.4729    0.4188 O.3     1  UNL1       -0.3801
     35 O          21.2037   71.8641    2.0235 O.3     1  UNL1       -0.3794
     36 O          23.1172   73.0788   -0.8578 O.3     1  UNL1       -0.3263
     37 H          20.9566   69.4925    1.2073 H       1  UNL1        0.2105
     38 H          21.6012   72.4930    2.6424 H       1  UNL1        0.2105
     39 C          20.4468   69.7579   -2.3991 C.2     1  UNL1        0.2231
     40 C          19.8153   68.9163   -3.4786 C.3     1  UNL1        0.0946
     41 N          21.7678   70.0184   -2.4335 N.am    1  UNL1       -0.2994
     42 O          19.7655   70.2003   -1.4989 O.2     1  UNL1       -0.2751
     43 H          22.3133   69.6643   -3.1536 H       1  UNL1        0.1496
     44 C          22.7596   74.1534    1.2735 C.3     1  UNL1        0.1693
     45 O          22.8540   75.4478    0.6754 O.3     1  UNL1       -0.3794
     46 H          23.1984   76.0448    1.3533 H       1  UNL1        0.2105
@<TRIPOS>BOND
     1    29    30    1
     2    29    28    1
     3    29    36    1
     4    30    31    1
     5    30    41    1
     6    31    32    1
     7    31    34    1
     8    32    33    1
     9    32    35    1
    10    33    44    1
    11    33    36    1
    12    44    45    1
    13    39    40    1
    14    39    41   am
    15    39    42    2
    16    41    43    1
    17    28    25    1
    18    34    37    1
    19    35    38    1
    20    45    46    1
    21    15    16   ar
    22    15    20   ar
    23    15     6    1
    24    16    17   ar
    25    16    21    2
    26    17    18   ar
    27    17    23    1
    28    18    19   ar
    29    18    22    2
    30    19    20   ar
    31     6     7    1
    32     6    11    1
    33     7     8    1
    34     7     9    1
    35     8    13    1
    36     9    10    1
    37     9    12    1
    38    10    11    1
    39    10     5    1
    40    12    14    1
    41     5     4    1
    42     4     1    1
    43     1     2    2
    44     1     3    1
    45     1    24    1
    46    24    25    1
    47    25    26    2
    48    25    27    1
@<TRIPOS>MOLECULE
UD1
 46 48 0 0 0
SMALL
GASTEIGER

@<TRIPOS>ATOM
      1 P          21.9735   70.4447   -0.3009 P.3     1  UNL1        0.2189
      2 O          22.7953   71.4761   -0.9713 O.2     1  UNL1       -0.5170
      3 O          22.9123   69.2130    0.1397 O.3     1  UNL1       -0.4371
      4 O          20.8407   69.9179   -1.3168 O.3     1  UNL1       -0.3112
      5 C          20.9614   70.6942   -2.5098 C.3     1  UNL1        0.1811
      6 C          18.4098   70.9898   -5.0257 C.3     1  UNL1        0.2383
      7 C          18.1496   69.6109   -4.3691 C.3     1  UNL1        0.1895
      8 O          16.7600   69.2835   -4.4013 O.3     1  UNL1       -0.3779
      9 C          18.6288   69.8478   -2.9133 C.3     1  UNL1        0.1713
     10 C          19.5684   71.0643   -3.0217 C.3     1  UNL1        0.1764
     11 O          19.6391   71.4301   -4.4104 O.3     1  UNL1       -0.3308
     12 O          17.5182   70.1397   -2.0622 O.3     1  UNL1       -0.3794
     13 H          16.6663   68.4180   -3.9798 H       1  UNL1        0.2106
     14 H          16.9393   69.3660   -2.0834 H       1  UNL1        0.2105
     15 N          18.5773   70.8526   -6.4729 N.ar    1  UNL1       -0.2551
     16 C          17.4941   70.8109   -7.2681 C.ar    1  UNL1        0.3323
     17 N          17.6183   70.6893   -8.6030 N.ar    1  UNL1       -0.2743
     18 C          18.8399   70.5974   -9.1661 C.ar    1  UNL1        0.2626
     19 C          19.9886   70.6339   -8.3402 C.ar    1  UNL1        0.0795
     20 C          19.8354   70.7619   -7.0048 C.ar    1  UNL1        0.0869
     21 O          16.3855   70.8927   -6.7751 O.2     1  UNL1       -0.2464
     22 O          18.9533   70.4825  -10.3725 O.2     1  UNL1       -0.2670
     23 H          16.8263   70.6657   -9.1618 H       1  UNL1        0.1734
     24 O          21.2730   71.0794    1.0012 O.3     1  UNL1       -0.2703
     25 P          21.7872   72.6002    1.1109 P.3     1  UNL1        0.2208
     26 O          20.7713   73.5072    0.5329 O.2     1  UNL1       -0.5170
     27 O          23.1701   72.7596    0.3020 O.3     1  UNL1       -0.4371
     28 O          22.0253   72.9773    2.6574 O.3     1  UNL1       -0.2865
     29 C          21.8219   74.3864    2.7765 C.3     1  UNL1        0.2611
     30 C          23.0628   75.0247    3.4031 C.3     1  UNL1        0.1582
     31 C          23.3097   74.3954    4.7788 C.3     1  UNL1        0.1625
     32 C          22.0268   74.5124    5.6086 C.3     1  UNL1        0.1686
     33 C          20.8644   73.9099    4.8167 C.3     1  UNL1        0.1760
     34 O          24.3740   75.0851    5.4368 O.3     1  UNL1       -0.3801
     35 O          22.1870   73.8036    6.8389 O.3     1  UNL1       -0.3794
     36 O          20.6840   74.6330    3.5997 O.3     1  UNL1       -0.3263
     37 H          24.4953   74.6573    6.2957 H       1  UNL1        0.2105
     38 H          21.3582   73.9023    7.3286 H       1  UNL1        0.2105
     39 C          24.6333   75.7468    1.6866 C.2     1  UNL1        0.2231
     40 C          25.8272   75.5043    0.7989 C.3     1  UNL1        0.0946
     41 N          24.2229   74.7898    2.5409 N.am    1  UNL1       -0.2994
     42 O          24.0414   76.8036    1.6313 O.2     1  UNL1       -0.2751
     43 H          24.6963   73.9439    2.5852 H       1  UNL1        0.1496
     44 C          19.5840   73.9924    5.6503 C.3     1  UNL1        0.1693
     45 O          18.6371   73.0383    5.1654 O.3     1  UNL1       -0.3794
     46 H          17.8471   73.1233    5.7162 H       1  UNL1        0.2105
@<TRIPOS>BOND
     1    29    30    1
     2    29    28    1
     3    29    36    1
     4    30    31    1
     5    30    41    1
     6    31    32    1
     7    31    34    1
     8    32    33    1
     9    32    35    1
    10    33    44    1
    11    33    36    1
    12    44    45    1
    13    39    40    1
    14    39    41   am
    15    39    42    2
    16    41    43    1
    17    28    25    1
    18    34    37    1
    19    35    38    1
    20    45    46    1
    21    15    16   ar
    22    15    20   ar
    23    15     6    1
    24    16    17   ar
    25    16    21    2
    26    17    18   ar
    27    17    23    1
    28    18    19   ar
    29    18    22    2
    30    19    20   ar
    31     6     7    1
    32     6    11    1
    33     7     8    1
    34     7     9    1
    35     8    13    1
    36     9    10    1
    37     9    12    1
    38    10    11    1
    39    10     5    1
    40    12    14    1
    41     5     4    1
    42     4     1    1
    43     1     2    2
    44     1     3    1
    45     1    24    1
    46    24    25    1
    47    25    26    2
    48    25    27    1
@<TRIPOS>MOLECULE
UD1
 46 48 0 0 0
SMALL
GASTEIGER

@<TRIPOS>ATOM
      1 P          22.3886   71.0201   -2.5506 P.3     1  UNL1        0.2189
      2 O          22.0652   70.0055   -1.5236 O.2     1  UNL1       -0.5170
      3 O          23.6623   70.5310   -3.4058 O.3     1  UNL1       -0.4371
      4 O          22.7313   72.4198   -1.8321 O.3     1  UNL1       -0.3112
      5 C          22.6182   72.2014   -0.4251 C.3     1  UNL1        0.1811
      6 C          20.7673   73.9567    2.1087 C.3     1  UNL1        0.2383
      7 C          21.5320   75.0679    1.3467 C.3     1  UNL1        0.1895
      8 O          20.7966   76.2920    1.3546 O.3     1  UNL1       -0.3779
      9 C          21.6153   74.4816   -0.0867 C.3     1  UNL1        0.1713
     10 C          21.4101   72.9679    0.1155 C.3     1  UNL1        0.1764
     11 O          21.2771   72.7373    1.5284 O.3     1  UNL1       -0.3308
     12 O          20.5832   75.0272   -0.9112 O.3     1  UNL1       -0.3794
     13 H          21.3247   76.9392    0.8669 H       1  UNL1        0.2106
     14 H          20.7319   75.9814   -0.9500 H       1  UNL1        0.2105
     15 N          21.0639   74.0103    3.5407 N.ar    1  UNL1       -0.2551
     16 C          21.6651   72.9656    4.1361 C.ar    1  UNL1        0.3323
     17 N          21.9535   72.9890    5.4509 N.ar    1  UNL1       -0.2743
     18 C          21.6331   74.0648    6.1978 C.ar    1  UNL1        0.2626
     19 C          20.9946   75.1692    5.5849 C.ar    1  UNL1        0.0795
     20 C          20.7217   75.1214    4.2633 C.ar    1  UNL1        0.0869
     21 O          21.9603   71.9882    3.4758 O.2     1  UNL1       -0.2464
     22 O          21.8891   74.0851    7.3875 O.2     1  UNL1       -0.2670
     23 H          22.3917   72.2285    5.8630 H       1  UNL1        0.1734
     24 O          21.1264   71.2143   -3.5293 O.3     1  UNL1       -0.2703
     25 P          21.4200   72.5277   -4.4115 P.3     1  UNL1        0.2208
     26 O          22.8474   72.5522   -4.7996 O.2     1  UNL1       -0.5170
     27 O          21.0768   73.8427   -3.5481 O.3     1  UNL1       -0.4371
     28 O          20.5045   72.5025   -5.7350 O.3     1  UNL1       -0.2865
     29 C          19.1558   72.7069   -5.3100 C.3     1  UNL1        0.2611
     30 C          18.3178   71.4826   -5.6828 C.3     1  UNL1        0.1582
     31 C          18.3815   71.2747   -7.2001 C.3     1  UNL1        0.1625
     32 C          17.9724   72.5798   -7.8912 C.3     1  UNL1        0.1686
     33 C          18.8388   73.7210   -7.3539 C.3     1  UNL1        0.1760
     34 O          17.4856   70.2278   -7.5780 O.3     1  UNL1       -0.3801
     35 O          18.1653   72.4547   -9.3014 O.3     1  UNL1       -0.3794
     36 O          18.6279   73.8666   -5.9501 O.3     1  UNL1       -0.3263
     37 H          17.5580   70.1309   -8.5375 H       1  UNL1        0.2105
     38 H          17.8970   73.2965   -9.6962 H       1  UNL1        0.2105
     39 C          18.0441   69.5487   -4.2270 C.2     1  UNL1        0.2231
     40 C          18.5919   68.3313   -3.5269 C.3     1  UNL1        0.0946
     41 N          18.8494   70.2996   -5.0029 N.am    1  UNL1       -0.2994
     42 O          16.8782   69.8528   -4.0913 O.2     1  UNL1       -0.2751
     43 H          19.7825   70.0566   -5.1114 H       1  UNL1        0.1496
     44 C          18.4602   75.0237   -8.0616 C.3     1  UNL1        0.1693
     45 O          19.4482   76.0193   -7.7880 O.3     1  UNL1       -0.3794
     46 H          19.1722   76.8220   -8.2508 H       1  UNL1        0.2105
@<TRIPOS>BOND
     1    29    30    1
     2    29    28    1
     3    29    36    1
     4    30    31    1
     5    30    41    1
     6    31    32    1
     7    31    34    1
     8    32    33    1
     9    32    35    1
    10    33    44    1
    11    33    36    1
    12    44    45    1
    13    39    40    1
    14    39    41   am
    15    39    42    2
    16    41    43    1
    17    28    25    1
    18    34    37    1
    19    35    38    1
    20    45    46    1
    21    15    16   ar
    22    15    20   ar
    23    15     6    1
    24    16    17   ar
    25    16    21    2
    26    17    18   ar
    27    17    23    1
    28    18    19   ar
    29    18    22    2
    30    19    20   ar
    31     6     7    1
    32     6    11    1
    33     7     8    1
    34     7     9    1
    35     8    13    1
    36     9    10    1
    37     9    12    1
    38    10    11    1
    39    10     5    1
    40    12    14    1
    41     5     4    1
    42     4     1    1
    43     1     2    2
    44     1     3    1
    45     1    24    1
    46    24    25    1
    47    25    26    2
    48    25    27    1
@<TRIPOS>MOLECULE
UD1
 46 48 0 0 0
SMALL
GASTEIGER

@<TRIPOS>ATOM
      1 P          23.1994   74.4099   -3.9557 P.3     1  UNL1        0.2189
      2 O          23.9395   73.1389   -4.1156 O.2     1  UNL1       -0.5170
      3 O          23.8648   75.5396   -4.8903 O.3     1  UNL1       -0.4371
      4 O          23.2669   74.8796   -2.4170 O.3     1  UNL1       -0.3112
      5 C          22.2927   74.1131   -1.7072 C.3     1  UNL1        0.1811
      6 C          23.0079   72.3544    1.3461 C.3     1  UNL1        0.2383
      7 C          21.8742   71.5337    0.6818 C.3     1  UNL1        0.1895
      8 O          21.9827   70.1493    1.0151 O.3     1  UNL1       -0.3779
      9 C          22.1479   71.7626   -0.8275 C.3     1  UNL1        0.1713
     10 C          22.9958   73.0488   -0.8633 C.3     1  UNL1        0.1764
     11 O          23.1330   73.5108    0.4913 O.3     1  UNL1       -0.3308
     12 O          22.8744   70.6612   -1.3769 O.3     1  UNL1       -0.3794
     13 H          21.2512   69.6966    0.5729 H       1  UNL1        0.2106
     14 H          22.3174   69.8786   -1.2710 H       1  UNL1        0.2105
     15 N          22.6334   72.7538    2.7032 N.ar    1  UNL1       -0.2551
     16 C          21.3789   72.5421    3.1377 C.ar    1  UNL1        0.3323
     17 N          21.0076   72.8957    4.3824 N.ar    1  UNL1       -0.2743
     18 C          21.8923   73.4803    5.2152 C.ar    1  UNL1        0.2626
     19 C          23.2146   73.7145    4.7686 C.ar    1  UNL1        0.0795
     20 C          23.5618   73.3450    3.5170 C.ar    1  UNL1        0.0869
     21 O          20.5695   72.0158    2.3984 O.2     1  UNL1       -0.2464
     22 O          21.5563   73.8047    6.3391 O.2     1  UNL1       -0.2670
     23 H          20.0998   72.7312    4.6809 H       1  UNL1        0.1734
     24 O          21.6635   74.1942   -4.3838 O.3     1  UNL1       -0.2703
     25 P          21.5702   72.7383   -5.0628 P.3     1  UNL1        0.2208
     26 O          22.4292   71.7911   -4.3185 O.2     1  UNL1       -0.5170
     27 O          22.0678   72.8254   -6.5915 O.3     1  UNL1       -0.4371
     28 O          20.0457   72.2236   -5.0247 O.3     1  UNL1       -0.2865
     29 C          20.0527   70.8722   -5.4883 C.3     1  UNL1        0.2611
     30 C          18.8917   70.6665   -6.4627 C.3     1  UNL1        0.1582
     31 C          17.5742   70.9864   -5.7474 C.3     1  UNL1        0.1625
     32 C          17.5008   70.1566   -4.4613 C.3     1  UNL1        0.1686
     33 C          18.7657   70.4032   -3.6362 C.3     1  UNL1        0.1760
     34 O          16.4749   70.6556   -6.5980 O.3     1  UNL1       -0.3801
     35 O          16.3523   70.5464   -3.7060 O.3     1  UNL1       -0.3794
     36 O          19.9129   69.9894   -4.3772 O.3     1  UNL1       -0.3263
     37 H          15.6688   70.8725   -6.1098 H       1  UNL1        0.2105
     38 H          16.3451   70.0012   -2.9064 H       1  UNL1        0.2105
     39 C          19.7400   71.1432   -8.6960 C.2     1  UNL1        0.2231
     40 C          19.9073   72.0611   -9.8800 C.3     1  UNL1        0.0946
     41 N          19.0541   71.5576   -7.6134 N.am    1  UNL1       -0.2994
     42 O          20.2236   70.0316   -8.7175 O.2     1  UNL1       -0.2751
     43 H          18.6671   72.4473   -7.5958 H       1  UNL1        0.1496
     44 C          18.6875   69.6039   -2.3339 C.3     1  UNL1        0.1693
     45 O          18.2448   68.2748   -2.6162 O.3     1  UNL1       -0.3794
     46 H          18.2091   67.8064   -1.7712 H       1  UNL1        0.2105
@<TRIPOS>BOND
     1    29    30    1
     2    29    28    1
     3    29    36    1
     4    30    31    1
     5    30    41    1
     6    31    32    1
     7    31    34    1
     8    32    33    1
     9    32    35    1
    10    33    44    1
    11    33    36    1
    12    44    45    1
    13    39    40    1
    14    39    41   am
    15    39    42    2
    16    41    43    1
    17    28    25    1
    18    34    37    1
    19    35    38    1
    20    45    46    1
    21    15    16   ar
    22    15    20   ar
    23    15     6    1
    24    16    17   ar
    25    16    21    2
    26    17    18   ar
    27    17    23    1
    28    18    19   ar
    29    18    22    2
    30    19    20   ar
    31     6     7    1
    32     6    11    1
    33     7     8    1
    34     7     9    1
    35     8    13    1
    36     9    10    1
    37     9    12    1
    38    10    11    1
    39    10     5    1
    40    12    14    1
    41     5     4    1
    42     4     1    1
    43     1     2    2
    44     1     3    1
    45     1    24    1
    46    24    25    1
    47    25    26    2
    48    25    27    1
@<TRIPOS>MOLECULE
UD1
 46 48 0 0 0
SMALL
GASTEIGER

@<TRIPOS>ATOM
      1 P          21.1211   70.8577   -2.4609 P.3     1  UNL1        0.2189
      2 O          20.5559   69.9535   -1.4355 O.2     1  UNL1       -0.5170
      3 O          22.3451   70.1246   -3.2071 O.3     1  UNL1       -0.4371
      4 O          21.6531   72.2034   -1.7545 O.3     1  UNL1       -0.3112
      5 C          22.3248   71.8052   -0.5584 C.3     1  UNL1        0.1811
      6 C          22.4207   73.9243    2.3446 C.3     1  UNL1        0.2383
      7 C          22.0621   74.8793    1.1786 C.3     1  UNL1        0.1895
      8 O          21.2445   75.9578    1.6342 O.3     1  UNL1       -0.3779
      9 C          21.2684   73.9471    0.2266 C.3     1  UNL1        0.1713
     10 C          21.7075   72.5289    0.6393 C.3     1  UNL1        0.1764
     11 O          22.6861   72.6689    1.6834 O.3     1  UNL1       -0.3308
     12 O          19.8622   74.1177    0.4169 O.3     1  UNL1       -0.3794
     13 H          21.0582   76.5127    0.8643 H       1  UNL1        0.2106
     14 H          19.6606   75.0377    0.2003 H       1  UNL1        0.2105
     15 N          23.6105   74.3953    3.0545 N.ar    1  UNL1       -0.2551
     16 C          23.7852   74.0741    4.3482 C.ar    1  UNL1        0.3323
     17 N          24.8719   74.4902    5.0251 N.ar    1  UNL1       -0.2743
     18 C          25.8040   75.2487    4.4137 C.ar    1  UNL1        0.2626
     19 C          25.6296   75.5993    3.0537 C.ar    1  UNL1        0.0795
     20 C          24.5329   75.1639    2.3972 C.ar    1  UNL1        0.0869
     21 O          22.9534   73.3905    4.9135 O.2     1  UNL1       -0.2464
     22 O          26.7845   75.6295    5.0260 O.2     1  UNL1       -0.2670
     23 H          24.9842   74.2451    5.9565 H       1  UNL1        0.1734
     24 O          19.9822   71.2299   -3.5348 O.3     1  UNL1       -0.2703
     25 P          20.6053   72.3545   -4.5024 P.3     1  UNL1        0.2208
     26 O          22.0360   72.0626   -4.7406 O.2     1  UNL1       -0.5170
     27 O          20.4616   73.8001   -3.8083 O.3     1  UNL1       -0.4371
     28 O          19.8167   72.3538   -5.9055 O.3     1  UNL1       -0.2865
     29 C          20.0849   71.0977   -6.5311 C.3     1  UNL1        0.2611
     30 C          20.1205   71.2866   -8.0487 C.3     1  UNL1        0.1582
     31 C          18.7724   71.8469   -8.5158 C.3     1  UNL1        0.1625
     32 C          17.6562   70.9333   -7.9985 C.3     1  UNL1        0.1686
     33 C          17.8047   70.7735   -6.4840 C.3     1  UNL1        0.1760
     34 O          18.7395   71.8873   -9.9437 O.3     1  UNL1       -0.3801
     35 O          16.3857   71.5151   -8.2968 O.3     1  UNL1       -0.3794
     36 O          19.0614   70.1674   -6.1841 O.3     1  UNL1       -0.3263
     37 H          17.8765   72.2453  -10.1932 H       1  UNL1        0.2105
     38 H          15.7133   70.9094   -7.9540 H       1  UNL1        0.2105
     39 C          20.9156   73.5332   -8.5537 C.2     1  UNL1        0.2231
     40 C          22.0164   74.4969   -8.9166 C.3     1  UNL1        0.0946
     41 N          21.1896   72.2233   -8.4008 N.am    1  UNL1       -0.2994
     42 O          19.7826   73.9369   -8.3999 O.2     1  UNL1       -0.2751
     43 H          22.0962   71.9000   -8.5240 H       1  UNL1        0.1496
     44 C          16.6751   69.8887   -5.9526 C.3     1  UNL1        0.1693
     45 O          16.8511   69.6823   -4.5496 O.3     1  UNL1       -0.3794
     46 H          16.1208   69.1213   -4.2555 H       1  UNL1        0.2105
@<TRIPOS>BOND
     1    29    30    1
     2    29    28    1
     3    29    36    1
     4    30    31    1
     5    30    41    1
     6    31    32    1
     7    31    34    1
     8    32    33    1
     9    32    35    1
    10    33    44    1
    11    33    36    1
    12    44    45    1
    13    39    40    1
    14    39    41   am
    15    39    42    2
    16    41    43    1
    17    28    25    1
    18    34    37    1
    19    35    38    1
    20    45    46    1
    21    15    16   ar
    22    15    20   ar
    23    15     6    1
    24    16    17   ar
    25    16    21    2
    26    17    18   ar
    27    17    23    1
    28    18    19   ar
    29    18    22    2
    30    19    20   ar
    31     6     7    1
    32     6    11    1
    33     7     8    1
    34     7     9    1
    35     8    13    1
    36     9    10    1
    37     9    12    1
    38    10    11    1
    39    10     5    1
    40    12    14    1
    41     5     4    1
    42     4     1    1
    43     1     2    2
    44     1     3    1
    45     1    24    1
    46    24    25    1
    47    25    26    2
    48    25    27    1
@<TRIPOS>MOLECULE
UD1
 46 48 0 0 0
SMALL
GASTEIGER

@<TRIPOS>ATOM
      1 P          22.9208   72.0189   -3.2488 P.3     1  UNL1        0.2189
      2 O          23.4797   70.6576   -3.0960 O.2     1  UNL1       -0.5170
      3 O          23.9278   72.9170   -4.1273 O.3     1  UNL1       -0.4371
      4 O          22.7348   72.6881   -1.7961 O.3     1  UNL1       -0.3112
      5 C          22.3400   71.6428   -0.9063 C.3     1  UNL1        0.1811
      6 C          20.4749   72.9609    1.8706 C.3     1  UNL1        0.2383
      7 C          20.7165   74.1833    0.9501 C.3     1  UNL1        0.1895
      8 O          19.6463   75.1228    1.0564 O.3     1  UNL1       -0.3779
      9 C          20.7428   73.5313   -0.4568 C.3     1  UNL1        0.1713
     10 C          21.0587   72.0494   -0.1768 C.3     1  UNL1        0.1764
     11 O          21.2387   71.9093    1.2427 O.3     1  UNL1       -0.3308
     12 O          19.4709   73.6666   -1.0948 O.3     1  UNL1       -0.3794
     13 H          19.8571   75.8561    0.4621 H       1  UNL1        0.2106
     14 H          19.3045   74.6141   -1.1877 H       1  UNL1        0.2105
     15 N          20.9709   73.2225    3.2223 N.ar    1  UNL1       -0.2551
     16 C          20.1332   73.7014    4.1584 C.ar    1  UNL1        0.3323
     17 N          20.5610   73.9476    5.4108 N.ar    1  UNL1       -0.2743
     18 C          21.8479   73.7246    5.7454 C.ar    1  UNL1        0.2626
     19 C          22.7420   73.2262    4.7681 C.ar    1  UNL1        0.0795
     20 C          22.2852   72.9830    3.5209 C.ar    1  UNL1        0.0869
     21 O          18.9695   73.9075    3.8720 O.2     1  UNL1       -0.2464
     22 O          22.2369   73.9514    6.8761 O.2     1  UNL1       -0.2670
     23 H          19.9418   74.2884    6.0746 H       1  UNL1        0.1734
     24 O          21.4936   71.9334   -3.9867 O.3     1  UNL1       -0.2703
     25 P          21.5110   73.0331   -5.1613 P.3     1  UNL1        0.2208
     26 O          22.7583   72.8975   -5.9454 O.2     1  UNL1       -0.5170
     27 O          21.4398   74.5074   -4.5183 O.3     1  UNL1       -0.4371
     28 O          20.2432   72.8087   -6.1271 O.3     1  UNL1       -0.2865
     29 C          20.3549   71.4868   -6.6574 C.3     1  UNL1        0.2611
     30 C          20.3198   71.5509   -8.1853 C.3     1  UNL1        0.1582
     31 C          19.0056   72.2028   -8.6296 C.3     1  UNL1        0.1625
     32 C          17.8403   71.4476   -7.9818 C.3     1  UNL1        0.1686
     33 C          18.0609   71.3940   -6.4686 C.3     1  UNL1        0.1760
     34 O          18.8936   72.1335  -10.0523 O.3     1  UNL1       -0.3801
     35 O          16.6150   72.1265   -8.2637 O.3     1  UNL1       -0.3794
     36 O          19.2702   70.6924   -6.1823 O.3     1  UNL1       -0.3263
     37 H          18.0551   72.5541  -10.2874 H       1  UNL1        0.2105
     38 H          15.9096   71.6192   -7.8377 H       1  UNL1        0.2105
     39 C          21.2952   73.6634   -8.9064 C.2     1  UNL1        0.2231
     40 C          22.4590   74.4822   -9.4041 C.3     1  UNL1        0.0946
     41 N          21.4501   72.3468   -8.6684 N.am    1  UNL1       -0.2994
     42 O          20.2189   74.1899   -8.7208 O.2     1  UNL1       -0.2751
     43 H          22.3113   71.9251   -8.8171 H       1  UNL1        0.1496
     44 C          16.8858   70.6697   -5.8084 C.3     1  UNL1        0.1693
     45 O          16.2304   69.8455   -6.7744 O.3     1  UNL1       -0.3794
     46 H          15.4982   69.4086   -6.3187 H       1  UNL1        0.2105
@<TRIPOS>BOND
     1    29    30    1
     2    29    28    1
     3    29    36    1
     4    30    31    1
     5    30    41    1
     6    31    32    1
     7    31    34    1
     8    32    33    1
     9    32    35    1
    10    33    44    1
    11    33    36    1
    12    44    45    1
    13    39    40    1
    14    39    41   am
    15    39    42    2
    16    41    43    1
    17    28    25    1
    18    34    37    1
    19    35    38    1
    20    45    46    1
    21    15    16   ar
    22    15    20   ar
    23    15     6    1
    24    16    17   ar
    25    16    21    2
    26    17    18   ar
    27    17    23    1
    28    18    19   ar
    29    18    22    2
    30    19    20   ar
    31     6     7    1
    32     6    11    1
    33     7     8    1
    34     7     9    1
    35     8    13    1
    36     9    10    1
    37     9    12    1
    38    10    11    1
    39    10     5    1
    40    12    14    1
    41     5     4    1
    42     4     1    1
    43     1     2    2
    44     1     3    1
    45     1    24    1
    46    24    25    1
    47    25    26    2
    48    25    27    1
@<TRIPOS>MOLECULE
UD1
 46 48 0 0 0
SMALL
GASTEIGER

@<TRIPOS>ATOM
      1 P          18.4504   72.4803   -2.5656 P.3     1  UNL1        0.2189
      2 O          19.0876   73.3983   -3.5351 O.2     1  UNL1       -0.5170
      3 O          17.1586   73.1931   -1.9207 O.3     1  UNL1       -0.4371
      4 O          19.5005   72.1186   -1.3997 O.3     1  UNL1       -0.3112
      5 C          20.3569   73.2517   -1.2480 C.3     1  UNL1        0.1811
      6 C          22.7573   72.5118    1.3246 C.3     1  UNL1        0.2383
      7 C          22.0553   71.1588    1.0480 C.3     1  UNL1        0.1895
      8 O          22.9452   70.0653    1.2752 O.3     1  UNL1       -0.3779
      9 C          21.6986   71.2785   -0.4566 C.3     1  UNL1        0.1713
     10 C          21.7206   72.7954   -0.7269 C.3     1  UNL1        0.1764
     11 O          22.0116   73.4498    0.5198 O.3     1  UNL1       -0.3308
     12 O          22.6739   70.6070   -1.2570 O.3     1  UNL1       -0.3794
     13 H          22.4492   69.2566    1.0868 H       1  UNL1        0.2106
     14 H          22.6532   69.6757   -0.9995 H       1  UNL1        0.2105
     15 N          22.6680   72.8630    2.7423 N.ar    1  UNL1       -0.2551
     16 C          21.5976   72.4772    3.4582 C.ar    1  UNL1        0.3323
     17 N          21.4908   72.7827    4.7649 N.ar    1  UNL1       -0.2743
     18 C          22.4588   73.4936    5.3778 C.ar    1  UNL1        0.2626
     19 C          23.5883   73.9114    4.6346 C.ar    1  UNL1        0.0795
     20 C          23.6725   73.5866    3.3266 C.ar    1  UNL1        0.0869
     21 O          20.7163   71.8354    2.9197 O.2     1  UNL1       -0.2464
     22 O          22.3610   73.7745    6.5580 O.2     1  UNL1       -0.2670
     23 H          20.7139   72.4921    5.2671 H       1  UNL1        0.1734
     24 O          18.0002   71.1319   -3.3192 O.3     1  UNL1       -0.2703
     25 P          19.1506   70.7926   -4.3919 P.3     1  UNL1        0.2208
     26 O          19.0553   69.3692   -4.7838 O.2     1  UNL1       -0.5170
     27 O          20.5948   71.0728   -3.7378 O.3     1  UNL1       -0.4371
     28 O          18.9633   71.7210   -5.6933 O.3     1  UNL1       -0.2865
     29 C          20.1453   71.5725   -6.4820 C.3     1  UNL1        0.2611
     30 C          20.5652   72.9396   -7.0250 C.3     1  UNL1        0.1582
     31 C          19.4219   73.5170   -7.8670 C.3     1  UNL1        0.1625
     32 C          19.0270   72.4864   -8.9301 C.3     1  UNL1        0.1686
     33 C          18.7202   71.1542   -8.2428 C.3     1  UNL1        0.1760
     34 O          19.8554   74.7218   -8.5011 O.3     1  UNL1       -0.3801
     35 O          17.8682   72.9424   -9.6307 O.3     1  UNL1       -0.3794
     36 O          19.8838   70.6822   -7.5647 O.3     1  UNL1       -0.3263
     37 H          19.1071   75.0501   -9.0185 H       1  UNL1        0.2105
     38 H          17.6542   72.2651  -10.2880 H       1  UNL1        0.2105
     39 C          22.0613   73.8037   -5.3078 C.2     1  UNL1        0.2231
     40 C          22.3606   74.7322   -4.1586 C.3     1  UNL1        0.0946
     41 N          20.8566   73.8417   -5.9090 N.am    1  UNL1       -0.2994
     42 O          22.9050   73.0217   -5.6910 O.2     1  UNL1       -0.2751
     43 H          20.1811   74.4672   -5.6023 H       1  UNL1        0.1496
     44 C          18.2932   70.1264   -9.2929 C.3     1  UNL1        0.1693
     45 O          18.9503   70.4080  -10.5302 O.3     1  UNL1       -0.3794
     46 H          18.6542   69.7394  -11.1627 H       1  UNL1        0.2105
@<TRIPOS>BOND
     1    29    30    1
     2    29    28    1
     3    29    36    1
     4    30    31    1
     5    30    41    1
     6    31    32    1
     7    31    34    1
     8    32    33    1
     9    32    35    1
    10    33    44    1
    11    33    36    1
    12    44    45    1
    13    39    40    1
    14    39    41   am
    15    39    42    2
    16    41    43    1
    17    28    25    1
    18    34    37    1
    19    35    38    1
    20    45    46    1
    21    15    16   ar
    22    15    20   ar
    23    15     6    1
    24    16    17   ar
    25    16    21    2
    26    17    18   ar
    27    17    23    1
    28    18    19   ar
    29    18    22    2
    30    19    20   ar
    31     6     7    1
    32     6    11    1
    33     7     8    1
    34     7     9    1
    35     8    13    1
    36     9    10    1
    37     9    12    1
    38    10    11    1
    39    10     5    1
    40    12    14    1
    41     5     4    1
    42     4     1    1
    43     1     2    2
    44     1     3    1
    45     1    24    1
    46    24    25    1
    47    25    26    2
    48    25    27    1
@<TRIPOS>MOLECULE
UD1
 46 48 0 0 0
SMALL
GASTEIGER

@<TRIPOS>ATOM
      1 P          21.4283   70.6534   -2.0719 P.3     1  UNL1        0.2189
      2 O          20.8390   69.6336   -1.1767 O.2     1  UNL1       -0.5170
      3 O          23.0288   70.6616   -1.8958 O.3     1  UNL1       -0.4371
      4 O          20.8403   72.1036   -1.6929 O.3     1  UNL1       -0.3112
      5 C          20.8047   72.1760   -0.2668 C.3     1  UNL1        0.1811
      6 C          21.8696   74.6119    2.1539 C.3     1  UNL1        0.2383
      7 C          23.1868   74.0579    1.5555 C.3     1  UNL1        0.1895
      8 O          24.2096   75.0544    1.5609 O.3     1  UNL1       -0.3779
      9 C          22.7634   73.7073    0.1053 C.3     1  UNL1        0.1713
     10 C          21.2303   73.5740    0.1847 C.3     1  UNL1        0.1764
     11 O          20.8515   73.7814    1.5561 O.3     1  UNL1       -0.3308
     12 O          23.1351   74.7561   -0.7918 O.3     1  UNL1       -0.3794
     13 H          24.9992   74.6475    1.1781 H       1  UNL1        0.2106
     14 H          24.0979   74.8297   -0.7518 H       1  UNL1        0.2105
     15 N          21.8611   74.4709    3.6105 N.ar    1  UNL1       -0.2551
     16 C          21.7820   73.2469    4.1609 C.ar    1  UNL1        0.3323
     17 N          21.7763   73.0871    5.4976 N.ar    1  UNL1       -0.2743
     18 C          21.8409   74.1608    6.3106 C.ar    1  UNL1        0.2626
     19 C          21.9185   75.4555    5.7444 C.ar    1  UNL1        0.0795
     20 C          21.9279   75.5868    4.4005 C.ar    1  UNL1        0.0869
     21 O          21.7231   72.2688    3.4408 O.2     1  UNL1       -0.2464
     22 O          21.8310   74.0177    7.5192 O.2     1  UNL1       -0.2670
     23 H          21.7235   72.1965    5.8774 H       1  UNL1        0.1734
     24 O          21.0572   70.3063   -3.5985 O.3     1  UNL1       -0.2703
     25 P          19.4940   69.9253   -3.6218 P.3     1  UNL1        0.2208
     26 O          18.8167   70.5505   -2.4645 O.2     1  UNL1       -0.5170
     27 O          19.3294   68.3258   -3.5392 O.3     1  UNL1       -0.4371
     28 O          18.8298   70.4618   -4.9862 O.3     1  UNL1       -0.2865
     29 C          19.4339   71.7245   -5.2727 C.3     1  UNL1        0.2611
     30 C          18.3388   72.7661   -5.5091 C.3     1  UNL1        0.1582
     31 C          17.4574   72.3104   -6.6775 C.3     1  UNL1        0.1625
     32 C          18.3552   72.0225   -7.8855 C.3     1  UNL1        0.1686
     33 C          19.4474   71.0344   -7.4704 C.3     1  UNL1        0.1760
     34 O          16.5251   73.3424   -7.0048 O.3     1  UNL1       -0.3801
     35 O          17.5725   71.4571   -8.9387 O.3     1  UNL1       -0.3794
     36 O          20.2482   71.6069   -6.4373 O.3     1  UNL1       -0.3263
     37 H          15.9924   73.0140   -7.7422 H       1  UNL1        0.2105
     38 H          18.1755   71.2911   -9.6772 H       1  UNL1        0.2105
     39 C          16.3860   72.1879   -4.1726 C.2     1  UNL1        0.2231
     40 C          15.5448   72.3270   -2.9295 C.3     1  UNL1        0.0946
     41 N          17.5216   72.9006   -4.3015 N.am    1  UNL1       -0.2994
     42 O          16.0400   71.4345   -5.0575 O.2     1  UNL1       -0.2751
     43 H          17.7985   73.5037   -3.5936 H       1  UNL1        0.1496
     44 C          20.3303   70.7150   -8.6785 C.3     1  UNL1        0.1693
     45 O          19.7413   69.6532   -9.4321 O.3     1  UNL1       -0.3794
     46 H          20.3276   69.4835  -10.1818 H       1  UNL1        0.2105
@<TRIPOS>BOND
     1    29    30    1
     2    29    28    1
     3    29    36    1
     4    30    31    1
     5    30    41    1
     6    31    32    1
     7    31    34    1
     8    32    33    1
     9    32    35    1
    10    33    44    1
    11    33    36    1
    12    44    45    1
    13    39    40    1
    14    39    41   am
    15    39    42    2
    16    41    43    1
    17    28    25    1
    18    34    37    1
    19    35    38    1
    20    45    46    1
    21    15    16   ar
    22    15    20   ar
    23    15     6    1
    24    16    17   ar
    25    16    21    2
    26    17    18   ar
    27    17    23    1
    28    18    19   ar
    29    18    22    2
    30    19    20   ar
    31     6     7    1
    32     6    11    1
    33     7     8    1
    34     7     9    1
    35     8    13    1
    36     9    10    1
    37     9    12    1
    38    10    11    1
    39    10     5    1
    40    12    14    1
    41     5     4    1
    42     4     1    1
    43     1     2    2
    44     1     3    1
    45     1    24    1
    46    24    25    1
    47    25    26    2
    48    25    27    1
@<TRIPOS>MOLECULE
UD1
 46 48 0 0 0
SMALL
GASTEIGER

@<TRIPOS>ATOM
      1 P          22.8264   73.7154   -4.0333 P.3     1  UNL1        0.2189
      2 O          23.8294   72.6293   -3.9782 O.2     1  UNL1       -0.5170
      3 O          23.2806   74.8106   -5.1228 O.3     1  UNL1       -0.4371
      4 O          22.7126   74.4139   -2.5870 O.3     1  UNL1       -0.3112
      5 C          21.9305   73.5438   -1.7675 C.3     1  UNL1        0.1811
      6 C          23.0737   72.2232    1.3751 C.3     1  UNL1        0.2383
      7 C          22.1028   71.1453    0.8313 C.3     1  UNL1        0.1895
      8 O          22.4915   69.8415    1.2652 O.3     1  UNL1       -0.3779
      9 C          22.2781   71.2932   -0.7025 C.3     1  UNL1        0.1713
     10 C          22.8553   72.7111   -0.8783 C.3     1  UNL1        0.1764
     11 O          22.9420   73.3047    0.4283 O.3     1  UNL1       -0.3308
     12 O          23.1889   70.3101   -1.1991 O.3     1  UNL1       -0.3794
     13 H          21.8495   69.2200    0.8949 H       1  UNL1        0.2106
     14 H          22.8000   69.4466   -1.0064 H       1  UNL1        0.2105
     15 N          22.6714   72.6569    2.7135 N.ar    1  UNL1       -0.2551
     16 C          21.4196   72.4196    3.1426 C.ar    1  UNL1        0.3323
     17 N          21.0232   72.8039    4.3704 N.ar    1  UNL1       -0.2743
     18 C          21.8792   73.4455    5.1910 C.ar    1  UNL1        0.2626
     19 C          23.1982   73.7071    4.7497 C.ar    1  UNL1        0.0795
     20 C          23.5711   73.3060    3.5155 C.ar    1  UNL1        0.0869
     21 O          20.6359   71.8419    2.4141 O.2     1  UNL1       -0.2464
     22 O          21.5204   73.7977    6.2994 O.2     1  UNL1       -0.2670
     23 H          20.1179   72.6203    4.6653 H       1  UNL1        0.1734
     24 O          21.3967   73.1051   -4.4483 O.3     1  UNL1       -0.2703
     25 P          21.2662   73.2699   -6.0436 P.3     1  UNL1        0.2208
     26 O          22.4815   72.7346   -6.6957 O.2     1  UNL1       -0.5170
     27 O          21.1033   74.8289   -6.4113 O.3     1  UNL1       -0.4371
     28 O          19.9767   72.4597   -6.5645 O.3     1  UNL1       -0.2865
     29 C          18.8619   72.9171   -5.7969 C.3     1  UNL1        0.2611
     30 C          18.1250   71.7123   -5.2091 C.3     1  UNL1        0.1582
     31 C          17.6587   70.8036   -6.3520 C.3     1  UNL1        0.1625
     32 C          16.8481   71.6425   -7.3456 C.3     1  UNL1        0.1686
     33 C          17.6827   72.8511   -7.7746 C.3     1  UNL1        0.1760
     34 O          16.8419   69.7552   -5.8273 O.3     1  UNL1       -0.3801
     35 O          16.5282   70.8500   -8.4908 O.3     1  UNL1       -0.3794
     36 O          17.9807   73.6594   -6.6370 O.3     1  UNL1       -0.3263
     37 H          16.5718   69.2090   -6.5784 H       1  UNL1        0.2105
     38 H          16.0199   71.4157   -9.0892 H       1  UNL1        0.2105
     39 C          18.5607   70.4271   -3.1861 C.2     1  UNL1        0.2231
     40 C          19.4900   69.6618   -2.2789 C.3     1  UNL1        0.0946
     41 N          19.0273   70.9684   -4.3278 N.am    1  UNL1       -0.2994
     42 O          17.3926   70.5563   -2.8878 O.2     1  UNL1       -0.2751
     43 H          19.9622   70.8653   -4.5666 H       1  UNL1        0.1496
     44 C          16.8944   73.6783   -8.7922 C.3     1  UNL1        0.1693
     45 O          15.5279   73.2604   -8.7902 O.3     1  UNL1       -0.3794
     46 H          15.0678   73.8049   -9.4433 H       1  UNL1        0.2105
@<TRIPOS>BOND
     1    29    30    1
     2    29    28    1
     3    29    36    1
     4    30    31    1
     5    30    41    1
     6    31    32    1
     7    31    34    1
     8    32    33    1
     9    32    35    1
    10    33    44    1
    11    33    36    1
    12    44    45    1
    13    39    40    1
    14    39    41   am
    15    39    42    2
    16    41    43    1
    17    28    25    1
    18    34    37    1
    19    35    38    1
    20    45    46    1
    21    15    16   ar
    22    15    20   ar
    23    15     6    1
    24    16    17   ar
    25    16    21    2
    26    17    18   ar
    27    17    23    1
    28    18    19   ar
    29    18    22    2
    30    19    20   ar
    31     6     7    1
    32     6    11    1
    33     7     8    1
    34     7     9    1
    35     8    13    1
    36     9    10    1
    37     9    12    1
    38    10    11    1
    39    10     5    1
    40    12    14    1
    41     5     4    1
    42     4     1    1
    43     1     2    2
    44     1     3    1
    45     1    24    1
    46    24    25    1
    47    25    26    2
    48    25    27    1
@<TRIPOS>MOLECULE
UD1
 46 48 0 0 0
SMALL
GASTEIGER

@<TRIPOS>ATOM
      1 P          22.1993   71.6659   -3.0319 P.3     1  UNL1        0.2189
      2 O          22.5684   70.3517   -2.4615 O.2     1  UNL1       -0.5170
      3 O          23.5271   72.4237   -3.5372 O.3     1  UNL1       -0.4371
      4 O          21.4717   72.5548   -1.9036 O.3     1  UNL1       -0.3112
      5 C          22.4999   73.2559   -1.2023 C.3     1  UNL1        0.1811
      6 C          22.7378   73.1702    2.3842 C.3     1  UNL1        0.2383
      7 C          21.2810   72.7386    2.0814 C.3     1  UNL1        0.1895
      8 O          20.7985   71.8345    3.0760 O.3     1  UNL1       -0.3779
      9 C          21.4304   72.0263    0.7119 C.3     1  UNL1        0.1713
     10 C          22.7528   72.5781    0.1452 C.3     1  UNL1        0.1764
     11 O          23.2569   73.5388    1.0888 O.3     1  UNL1       -0.3308
     12 O          21.5072   70.6103    0.8901 O.3     1  UNL1       -0.3794
     13 H          19.8913   71.6060    2.8304 H       1  UNL1        0.2106
     14 H          20.6770   70.3352    1.3015 H       1  UNL1        0.2105
     15 N          22.7615   74.3155    3.2948 N.ar    1  UNL1       -0.2551
     16 C          22.1769   75.4695    2.9293 C.ar    1  UNL1        0.3323
     17 N          22.1800   76.5379    3.7482 N.ar    1  UNL1       -0.2743
     18 C          22.7820   76.4691    4.9527 C.ar    1  UNL1        0.2626
     19 C          23.4066   75.2621    5.3477 C.ar    1  UNL1        0.0795
     20 C          23.3840   74.2041    4.5089 C.ar    1  UNL1        0.0869
     21 O          21.6297   75.5472    1.8461 O.2     1  UNL1       -0.2464
     22 O          22.7896   77.4359    5.6920 O.2     1  UNL1       -0.2670
     23 H          21.7492   77.3610    3.4703 H       1  UNL1        0.1734
     24 O          21.1982   71.4502   -4.2730 O.3     1  UNL1       -0.2703
     25 P          21.3044   72.7679   -5.1904 P.3     1  UNL1        0.2208
     26 O          22.6114   72.7822   -5.8835 O.2     1  UNL1       -0.5170
     27 O          21.1742   74.0789   -4.2649 O.3     1  UNL1       -0.4371
     28 O          20.1195   72.7619   -6.2796 O.3     1  UNL1       -0.2865
     29 C          20.0707   71.4451   -6.8318 C.3     1  UNL1        0.2611
     30 C          20.0966   71.5364   -8.3586 C.3     1  UNL1        0.1582
     31 C          18.8977   72.3663   -8.8315 C.3     1  UNL1        0.1625
     32 C          17.6202   71.7653   -8.2358 C.3     1  UNL1        0.1686
     33 C          17.7800   71.6596   -6.7177 C.3     1  UNL1        0.1760
     34 O          18.8259   72.3341  -10.2581 O.3     1  UNL1       -0.3801
     35 O          16.5075   72.6074   -8.5431 O.3     1  UNL1       -0.3794
     36 O          18.8737   70.7972   -6.4069 O.3     1  UNL1       -0.3263
     37 H          18.0600   72.8675  -10.5114 H       1  UNL1        0.2105
     38 H          15.7263   72.1934   -8.1497 H       1  UNL1        0.2105
     39 C          21.3703   73.5085   -9.0088 C.2     1  UNL1        0.2231
     40 C          22.6496   74.1703   -9.4533 C.3     1  UNL1        0.0946
     41 N          21.3393   72.1799   -8.7899 N.am    1  UNL1       -0.2994
     42 O          20.3682   74.1722   -8.8488 O.2     1  UNL1       -0.2751
     43 H          22.1410   71.6485   -8.9181 H       1  UNL1        0.1496
     44 C          16.4966   71.0905   -6.1094 C.3     1  UNL1        0.1693
     45 O          16.6004   69.6680   -6.0219 O.3     1  UNL1       -0.3794
     46 H          15.7734   69.3503   -5.6348 H       1  UNL1        0.2105
@<TRIPOS>BOND
     1    29    30    1
     2    29    28    1
     3    29    36    1
     4    30    31    1
     5    30    41    1
     6    31    32    1
     7    31    34    1
     8    32    33    1
     9    32    35    1
    10    33    44    1
    11    33    36    1
    12    44    45    1
    13    39    40    1
    14    39    41   am
    15    39    42    2
    16    41    43    1
    17    28    25    1
    18    34    37    1
    19    35    38    1
    20    45    46    1
    21    15    16   ar
    22    15    20   ar
    23    15     6    1
    24    16    17   ar
    25    16    21    2
    26    17    18   ar
    27    17    23    1
    28    18    19   ar
    29    18    22    2
    30    19    20   ar
    31     6     7    1
    32     6    11    1
    33     7     8    1
    34     7     9    1
    35     8    13    1
    36     9    10    1
    37     9    12    1
    38    10    11    1
    39    10     5    1
    40    12    14    1
    41     5     4    1
    42     4     1    1
    43     1     2    2
    44     1     3    1
    45     1    24    1
    46    24    25    1
    47    25    26    2
    48    25    27    1
@<TRIPOS>MOLECULE
UD1
 46 48 0 0 0
SMALL
GASTEIGER

@<TRIPOS>ATOM
      1 P          17.1415   71.0510   -3.4319 P.3     1  UNL1        0.2189
      2 O          16.8078   70.3497   -4.6911 O.2     1  UNL1       -0.5170
      3 O          15.7845   71.4264   -2.6507 O.3     1  UNL1       -0.4371
      4 O          17.9561   72.3986   -3.7684 O.3     1  UNL1       -0.3112
      5 C          17.0271   73.4792   -3.6701 C.3     1  UNL1        0.1811
      6 C          17.2099   73.5886   -7.2592 C.3     1  UNL1        0.2383
      7 C          15.7547   73.1507   -6.9578 C.3     1  UNL1        0.1895
      8 O          14.8618   73.6110   -7.9727 O.3     1  UNL1       -0.3779
      9 C          15.4733   73.8623   -5.6089 C.3     1  UNL1        0.1713
     10 C          16.8753   74.1484   -5.0370 C.3     1  UNL1        0.1764
     11 O          17.8347   73.6022   -5.9580 O.3     1  UNL1       -0.3308
     12 O          14.7562   75.0795   -5.8254 O.3     1  UNL1       -0.3794
     13 H          13.9774   73.3063   -7.7270 H       1  UNL1        0.2106
     14 H          13.9160   74.8390   -6.2381 H       1  UNL1        0.2105
     15 N          17.8709   72.6240   -8.1391 N.ar    1  UNL1       -0.2551
     16 C          18.7165   73.0593   -9.0892 C.ar    1  UNL1        0.3323
     17 N          19.3415   72.1945   -9.9100 N.ar    1  UNL1       -0.2743
     18 C          19.1201   70.8693   -9.7967 C.ar    1  UNL1        0.2626
     19 C          18.2277   70.3978   -8.8046 C.ar    1  UNL1        0.0795
     20 C          17.6184   71.2868   -7.9912 C.ar    1  UNL1        0.0869
     21 O          18.9265   74.2515   -9.2038 O.2     1  UNL1       -0.2464
     22 O          19.6809   70.0868  -10.5414 O.2     1  UNL1       -0.2670
     23 H          19.9518   72.5257  -10.5867 H       1  UNL1        0.1734
     24 O          18.0464   70.0937   -2.5080 O.3     1  UNL1       -0.2703
     25 P          19.5131   70.0609   -3.1691 P.3     1  UNL1        0.2208
     26 O          19.4186   69.5480   -4.5536 O.2     1  UNL1       -0.5170
     27 O          20.4706   69.0973   -2.3048 O.3     1  UNL1       -0.4371
     28 O          20.1278   71.5482   -3.1887 O.3     1  UNL1       -0.2865
     29 C          21.5401   71.4109   -3.3548 C.3     1  UNL1        0.2611
     30 C          22.2572   72.2840   -2.3235 C.3     1  UNL1        0.1582
     31 C          21.8289   73.7429   -2.5174 C.3     1  UNL1        0.1625
     32 C          22.0663   74.1332   -3.9800 C.3     1  UNL1        0.1686
     33 C          21.3609   73.1222   -4.8864 C.3     1  UNL1        0.1760
     34 O          22.6018   74.5866   -1.6617 O.3     1  UNL1       -0.3801
     35 O          21.5388   75.4397   -4.2177 O.3     1  UNL1       -0.3794
     36 O          21.9045   71.8204   -4.6712 O.3     1  UNL1       -0.3263
     37 H          22.3000   75.4924   -1.8156 H       1  UNL1        0.2105
     38 H          21.7085   75.6449   -5.1481 H       1  UNL1        0.2105
     39 C          22.6174   70.8791   -0.3663 C.2     1  UNL1        0.2231
     40 C          22.2478   70.4248    1.0227 C.3     1  UNL1        0.0946
     41 N          21.8988   71.8427   -0.9740 N.am    1  UNL1       -0.2994
     42 O          23.5616   70.3765   -0.9373 O.2     1  UNL1       -0.2751
     43 H          21.1430   72.2448   -0.5173 H       1  UNL1        0.1496
     44 C          21.5648   73.5215   -6.3493 C.3     1  UNL1        0.1693
     45 O          22.7581   74.2984   -6.4696 O.3     1  UNL1       -0.3794
     46 H          22.8489   74.5289   -7.4041 H       1  UNL1        0.2105
@<TRIPOS>BOND
     1    29    30    1
     2    29    28    1
     3    29    36    1
     4    30    31    1
     5    30    41    1
     6    31    32    1
     7    31    34    1
     8    32    33    1
     9    32    35    1
    10    33    44    1
    11    33    36    1
    12    44    45    1
    13    39    40    1
    14    39    41   am
    15    39    42    2
    16    41    43    1
    17    28    25    1
    18    34    37    1
    19    35    38    1
    20    45    46    1
    21    15    16   ar
    22    15    20   ar
    23    15     6    1
    24    16    17   ar
    25    16    21    2
    26    17    18   ar
    27    17    23    1
    28    18    19   ar
    29    18    22    2
    30    19    20   ar
    31     6     7    1
    32     6    11    1
    33     7     8    1
    34     7     9    1
    35     8    13    1
    36     9    10    1
    37     9    12    1
    38    10    11    1
    39    10     5    1
    40    12    14    1
    41     5     4    1
    42     4     1    1
    43     1     2    2
    44     1     3    1
    45     1    24    1
    46    24    25    1
    47    25    26    2
    48    25    27    1
@<TRIPOS>MOLECULE
UD1
 46 48 0 0 0
SMALL
GASTEIGER

@<TRIPOS>ATOM
      1 P          18.8492   71.6299   -2.6777 P.3     1  UNL1        0.2189
      2 O          17.5716   72.3022   -2.3544 O.2     1  UNL1       -0.5170
      3 O          18.5521   70.1386   -3.2070 O.3     1  UNL1       -0.4371
      4 O          19.7658   71.5564   -1.3558 O.3     1  UNL1       -0.3112
      5 C          20.5441   72.7537   -1.3246 C.3     1  UNL1        0.1811
      6 C          22.8295   72.3845    1.4263 C.3     1  UNL1        0.2383
      7 C          22.2787   70.9567    1.1849 C.3     1  UNL1        0.1895
      8 O          23.2516   69.9689    1.5272 O.3     1  UNL1       -0.3779
      9 C          22.0120   70.9646   -0.3428 C.3     1  UNL1        0.1713
     10 C          21.9076   72.4606   -0.6970 C.3     1  UNL1        0.1764
     11 O          22.0526   73.2027    0.5260 O.3     1  UNL1       -0.3308
     12 O          23.0972   70.3526   -1.0433 O.3     1  UNL1       -0.3794
     13 H          22.8480   69.1069    1.3553 H       1  UNL1        0.2106
     14 H          23.1480   69.4379   -0.7352 H       1  UNL1        0.2105
     15 N          22.6143   72.7965    2.8139 N.ar    1  UNL1       -0.2551
     16 C          21.4321   72.5526    3.4056 C.ar    1  UNL1        0.3323
     17 N          21.2076   72.9169    4.6820 N.ar    1  UNL1       -0.2743
     18 C          22.1691   73.5448    5.3886 C.ar    1  UNL1        0.2626
     19 C          23.4163   73.8130    4.7760 C.ar    1  UNL1        0.0795
     20 C          23.6165   73.4320    3.4961 C.ar    1  UNL1        0.0869
     21 O          20.5550   71.9871    2.7814 O.2     1  UNL1       -0.2464
     22 O          21.9655   73.8788    6.5411 O.2     1  UNL1       -0.2670
     23 H          20.3504   72.7288    5.0945 H       1  UNL1        0.1734
     24 O          19.6198   72.4619   -3.8191 O.3     1  UNL1       -0.2703
     25 P          19.1921   71.8198   -5.2312 P.3     1  UNL1        0.2208
     26 O          18.7539   70.4219   -5.0247 O.2     1  UNL1       -0.5170
     27 O          20.4502   71.8442   -6.2356 O.3     1  UNL1       -0.4371
     28 O          17.9838   72.6727   -5.8661 O.3     1  UNL1       -0.2865
     29 C          16.8899   71.7714   -6.0457 C.3     1  UNL1        0.2611
     30 C          16.3761   71.8808   -7.4824 C.3     1  UNL1        0.1582
     31 C          15.9368   73.3250   -7.7490 C.3     1  UNL1        0.1625
     32 C          14.9365   73.7409   -6.6653 C.3     1  UNL1        0.1686
     33 C          15.5602   73.4940   -5.2901 C.3     1  UNL1        0.1760
     34 O          15.3177   73.4076   -9.0340 O.3     1  UNL1       -0.3801
     35 O          14.6259   75.1282   -6.8087 O.3     1  UNL1       -0.3794
     36 O          15.8464   72.1048   -5.1329 O.3     1  UNL1       -0.3263
     37 H          15.0580   74.3306   -9.1601 H       1  UNL1        0.2105
     38 H          13.9955   75.3476   -6.1080 H       1  UNL1        0.2105
     39 C          18.2603   72.4615   -8.9132 C.2     1  UNL1        0.2231
     40 C          19.3594   72.0825   -9.8726 C.3     1  UNL1        0.0946
     41 N          17.4444   71.5131   -8.4141 N.am    1  UNL1       -0.2994
     42 O          18.1098   73.6207   -8.5909 O.2     1  UNL1       -0.2751
     43 H          17.5644   70.5854   -8.6720 H       1  UNL1        0.1496
     44 C          14.5814   73.9367   -4.2005 C.3     1  UNL1        0.1693
     45 O          13.2472   73.8893   -4.7104 O.3     1  UNL1       -0.3794
     46 H          12.6638   74.1752   -3.9945 H       1  UNL1        0.2105
@<TRIPOS>BOND
     1    29    30    1
     2    29    28    1
     3    29    36    1
     4    30    31    1
     5    30    41    1
     6    31    32    1
     7    31    34    1
     8    32    33    1
     9    32    35    1
    10    33    44    1
    11    33    36    1
    12    44    45    1
    13    39    40    1
    14    39    41   am
    15    39    42    2
    16    41    43    1
    17    28    25    1
    18    34    37    1
    19    35    38    1
    20    45    46    1
    21    15    16   ar
    22    15    20   ar
    23    15     6    1
    24    16    17   ar
    25    16    21    2
    26    17    18   ar
    27    17    23    1
    28    18    19   ar
    29    18    22    2
    30    19    20   ar
    31     6     7    1
    32     6    11    1
    33     7     8    1
    34     7     9    1
    35     8    13    1
    36     9    10    1
    37     9    12    1
    38    10    11    1
    39    10     5    1
    40    12    14    1
    41     5     4    1
    42     4     1    1
    43     1     2    2
    44     1     3    1
    45     1    24    1
    46    24    25    1
    47    25    26    2
    48    25    27    1
@<TRIPOS>MOLECULE
UD1
 46 48 0 0 0
SMALL
GASTEIGER

@<TRIPOS>ATOM
      1 P          20.3206   70.0390   -2.1488 P.3     1  UNL1        0.2189
      2 O          21.5122   69.5445   -2.8730 O.2     1  UNL1       -0.5170
      3 O          19.0995   69.0108   -2.3594 O.3     1  UNL1       -0.4371
      4 O          19.9074   71.4860   -2.7217 O.3     1  UNL1       -0.3112
      5 C          19.7011   71.3314   -4.1266 C.3     1  UNL1        0.1811
      6 C          16.8178   71.9405   -6.1865 C.3     1  UNL1        0.2383
      7 C          17.1817   70.4589   -6.4563 C.3     1  UNL1        0.1895
      8 O          16.0157   69.6941   -6.7639 O.3     1  UNL1       -0.3779
      9 C          17.7889   70.0202   -5.0984 C.3     1  UNL1        0.1713
     10 C          18.2016   71.3446   -4.4275 C.3     1  UNL1        0.1764
     11 O          17.8971   72.4059   -5.3485 O.3     1  UNL1       -0.3308
     12 O          16.8118   69.3362   -4.3109 O.3     1  UNL1       -0.3794
     13 H          16.3096   68.7861   -6.9210 H       1  UNL1        0.2106
     14 H          16.5510   68.5507   -4.8100 H       1  UNL1        0.2105
     15 N          16.7707   72.6997   -7.4366 N.ar    1  UNL1       -0.2551
     16 C          17.8473   72.7256   -8.2414 C.ar    1  UNL1        0.3323
     17 N          17.8309   73.4124   -9.3991 N.ar    1  UNL1       -0.2743
     18 C          16.7294   74.0974   -9.7672 C.ar    1  UNL1        0.2626
     19 C          15.5911   74.0836   -8.9264 C.ar    1  UNL1        0.0795
     20 C          15.6329   73.3821   -7.7734 C.ar    1  UNL1        0.0869
     21 O          18.8481   72.1127   -7.9231 O.2     1  UNL1       -0.2464
     22 O          16.7151   74.7226  -10.8113 O.2     1  UNL1       -0.2670
     23 H          18.6148   73.4162   -9.9697 H       1  UNL1        0.1734
     24 O          20.6576   70.1594   -0.5801 O.3     1  UNL1       -0.2703
     25 P          22.2209   70.5237   -0.4670 P.3     1  UNL1        0.2208
     26 O          22.7605   70.8046   -1.8156 O.2     1  UNL1       -0.5170
     27 O          23.0164   69.2828    0.1807 O.3     1  UNL1       -0.4371
     28 O          22.4045   71.8225    0.4656 O.3     1  UNL1       -0.2865
     29 C          21.1196   72.1255    1.0118 C.3     1  UNL1        0.2611
     30 C          20.7900   73.5948    0.7424 C.3     1  UNL1        0.1582
     31 C          21.8704   74.4759    1.3797 C.3     1  UNL1        0.1625
     32 C          22.0016   74.0977    2.8589 C.3     1  UNL1        0.1686
     33 C          22.2429   72.5906    2.9684 C.3     1  UNL1        0.1760
     34 O          21.4968   75.8502    1.2647 O.3     1  UNL1       -0.3801
     35 O          23.1021   74.8025    3.4365 O.3     1  UNL1       -0.3794
     36 O          21.1328   71.8833    2.4170 O.3     1  UNL1       -0.3263
     37 H          22.2027   76.3670    1.6771 H       1  UNL1        0.2105
     38 H          23.1490   74.5351    4.3654 H       1  UNL1        0.2105
     39 C          21.8540   74.2703   -1.3423 C.2     1  UNL1        0.2231
     40 C          21.8152   74.5145   -2.8293 C.3     1  UNL1        0.0946
     41 N          20.7530   73.8317   -0.7022 N.am    1  UNL1       -0.2994
     42 O          22.8764   74.4694   -0.7217 O.2     1  UNL1       -0.2751
     43 H          19.9346   73.6725   -1.1986 H       1  UNL1        0.1496
     44 C          22.4078   72.2075    4.4405 C.3     1  UNL1        0.1693
     45 O          21.4303   72.8946    5.2244 O.3     1  UNL1       -0.3794
     46 H          21.5689   72.6262    6.1427 H       1  UNL1        0.2105
@<TRIPOS>BOND
     1    29    30    1
     2    29    28    1
     3    29    36    1
     4    30    31    1
     5    30    41    1
     6    31    32    1
     7    31    34    1
     8    32    33    1
     9    32    35    1
    10    33    44    1
    11    33    36    1
    12    44    45    1
    13    39    40    1
    14    39    41   am
    15    39    42    2
    16    41    43    1
    17    28    25    1
    18    34    37    1
    19    35    38    1
    20    45    46    1
    21    15    16   ar
    22    15    20   ar
    23    15     6    1
    24    16    17   ar
    25    16    21    2
    26    17    18   ar
    27    17    23    1
    28    18    19   ar
    29    18    22    2
    30    19    20   ar
    31     6     7    1
    32     6    11    1
    33     7     8    1
    34     7     9    1
    35     8    13    1
    36     9    10    1
    37     9    12    1
    38    10    11    1
    39    10     5    1
    40    12    14    1
    41     5     4    1
    42     4     1    1
    43     1     2    2
    44     1     3    1
    45     1    24    1
    46    24    25    1
    47    25    26    2
    48    25    27    1
@<TRIPOS>MOLECULE
UD1
 46 48 0 0 0
SMALL
GASTEIGER

@<TRIPOS>ATOM
      1 P          22.4011   74.1017   -4.9259 P.3     1  UNL1        0.2189
      2 O          23.2155   75.0011   -5.7724 O.2     1  UNL1       -0.5170
      3 O          23.2639   72.7970   -4.5438 O.3     1  UNL1       -0.4371
      4 O          21.0821   73.6539   -5.7337 O.3     1  UNL1       -0.3112
      5 C          21.5176   72.8148   -6.8045 C.3     1  UNL1        0.1811
      6 C          18.2433   72.0414   -8.0727 C.3     1  UNL1        0.2383
      7 C          19.1665   71.9748   -9.3151 C.3     1  UNL1        0.1895
      8 O          18.6801   71.0237  -10.2628 O.3     1  UNL1       -0.3779
      9 C          20.5093   71.5042   -8.6981 C.3     1  UNL1        0.1713
     10 C          20.3843   71.8696   -7.2063 C.3     1  UNL1        0.1764
     11 O          19.1161   72.5235   -7.0290 O.3     1  UNL1       -0.3308
     12 O          20.6683   70.0934   -8.8626 O.3     1  UNL1       -0.3794
     13 H          19.2961   71.0312  -11.0085 H       1  UNL1        0.2106
     14 H          20.6796   69.9227   -9.8139 H       1  UNL1        0.2105
     15 N          17.1396   72.9761   -8.2952 N.ar    1  UNL1       -0.2551
     16 C          16.0110   72.8582   -7.5743 C.ar    1  UNL1        0.3323
     17 N          14.9813   73.7063   -7.7550 N.ar    1  UNL1       -0.2743
     18 C          15.0633   74.6884   -8.6752 C.ar    1  UNL1        0.2626
     19 C          16.2433   74.8202   -9.4453 C.ar    1  UNL1        0.0795
     20 C          17.2630   73.9592   -9.2397 C.ar    1  UNL1        0.0869
     21 O          15.9219   71.9776   -6.7405 O.2     1  UNL1       -0.2464
     22 O          14.1311   75.4527   -8.8428 O.2     1  UNL1       -0.2670
     23 H          14.1765   73.6095   -7.2229 H       1  UNL1        0.1734
     24 O          21.9704   74.8740   -3.5816 O.3     1  UNL1       -0.2703
     25 P          22.9679   74.3778   -2.4206 P.3     1  UNL1        0.2208
     26 O          22.8416   75.2701   -1.2473 O.2     1  UNL1       -0.5170
     27 O          24.4838   74.4157   -2.9619 O.3     1  UNL1       -0.4371
     28 O          22.5897   72.8729   -1.9933 O.3     1  UNL1       -0.2865
     29 C          21.3217   72.9343   -1.3378 C.3     1  UNL1        0.2611
     30 C          21.3259   71.9832   -0.1397 C.3     1  UNL1        0.1582
     31 C          21.6128   70.5598   -0.6308 C.3     1  UNL1        0.1625
     32 C          20.6106   70.2114   -1.7364 C.3     1  UNL1        0.1686
     33 C          20.6627   71.2948   -2.8157 C.3     1  UNL1        0.1760
     34 O          21.4719   69.6414    0.4546 O.3     1  UNL1       -0.3801
     35 O          20.9511   68.9475   -2.3091 O.3     1  UNL1       -0.3794
     36 O          20.2964   72.5540   -2.2529 O.3     1  UNL1       -0.3263
     37 H          21.6610   68.7609    0.1020 H       1  UNL1        0.2105
     38 H          20.2970   68.7677   -2.9993 H       1  UNL1        0.2105
     39 C          22.1216   72.3551    2.1325 C.2     1  UNL1        0.2231
     40 C          23.1902   72.7783    3.1077 C.3     1  UNL1        0.0946
     41 N          22.3639   72.3938    0.8081 N.am    1  UNL1       -0.2994
     42 O          21.0429   71.9802    2.5400 O.2     1  UNL1       -0.2751
     43 H          23.2270   72.6939    0.4816 H       1  UNL1        0.1496
     44 C          19.6884   70.9394   -3.9407 C.3     1  UNL1        0.1693
     45 O          18.8229   72.0488   -4.1900 O.3     1  UNL1       -0.3794
     46 H          18.2265   71.7836   -4.9033 H       1  UNL1        0.2105
@<TRIPOS>BOND
     1    29    30    1
     2    29    28    1
     3    29    36    1
     4    30    31    1
     5    30    41    1
     6    31    32    1
     7    31    34    1
     8    32    33    1
     9    32    35    1
    10    33    44    1
    11    33    36    1
    12    44    45    1
    13    39    40    1
    14    39    41   am
    15    39    42    2
    16    41    43    1
    17    28    25    1
    18    34    37    1
    19    35    38    1
    20    45    46    1
    21    15    16   ar
    22    15    20   ar
    23    15     6    1
    24    16    17   ar
    25    16    21    2
    26    17    18   ar
    27    17    23    1
    28    18    19   ar
    29    18    22    2
    30    19    20   ar
    31     6     7    1
    32     6    11    1
    33     7     8    1
    34     7     9    1
    35     8    13    1
    36     9    10    1
    37     9    12    1
    38    10    11    1
    39    10     5    1
    40    12    14    1
    41     5     4    1
    42     4     1    1
    43     1     2    2
    44     1     3    1
    45     1    24    1
    46    24    25    1
    47    25    26    2
    48    25    27    1
@<TRIPOS>MOLECULE
UD1
 46 48 0 0 0
SMALL
GASTEIGER

@<TRIPOS>ATOM
      1 P          21.0023   74.0646   -8.3630 P.3     1  UNL1        0.2189
      2 O          21.7717   73.1418   -9.2263 O.2     1  UNL1       -0.5170
      3 O          21.5512   73.9693   -6.8523 O.3     1  UNL1       -0.4371
      4 O          19.4454   73.6549   -8.3940 O.3     1  UNL1       -0.3112
      5 C          19.3600   72.4045   -9.0792 C.3     1  UNL1        0.1811
      6 C          17.9403   70.6278   -6.2944 C.3     1  UNL1        0.2383
      7 C          17.2499   72.0144   -6.2629 C.3     1  UNL1        0.1895
      8 O          15.9277   71.9152   -5.7328 O.3     1  UNL1       -0.3779
      9 C          17.2164   72.3958   -7.7657 C.3     1  UNL1        0.1713
     10 C          18.3145   71.5195   -8.3989 C.3     1  UNL1        0.1764
     11 O          18.9271   70.7657   -7.3388 O.3     1  UNL1       -0.3308
     12 O          15.9386   72.0936   -8.3303 O.3     1  UNL1       -0.3794
     13 H          15.5552   72.8078   -5.7399 H       1  UNL1        0.2106
     14 H          15.2893   72.6275   -7.8533 H       1  UNL1        0.2105
     15 N          18.5829   70.3383   -5.0120 N.ar    1  UNL1       -0.2551
     16 C          19.7386   70.9469   -4.6934 C.ar    1  UNL1        0.3323
     17 N          20.3498   70.7026   -3.5191 N.ar    1  UNL1       -0.2743
     18 C          19.8130   69.8305   -2.6422 C.ar    1  UNL1        0.2626
     19 C          18.5999   69.1782   -2.9674 C.ar    1  UNL1        0.0795
     20 C          18.0052   69.4458   -4.1498 C.ar    1  UNL1        0.0869
     21 O          20.2351   71.7361   -5.4739 O.2     1  UNL1       -0.2464
     22 O          20.3673   69.6053   -1.5822 O.2     1  UNL1       -0.2670
     23 H          21.1804   71.1542   -3.3037 H       1  UNL1        0.1734
     24 O          21.1715   75.5709   -8.9024 O.3     1  UNL1       -0.2703
     25 P          22.7460   75.9015   -8.8722 P.3     1  UNL1        0.2208
     26 O          23.4358   74.9357   -7.9887 O.2     1  UNL1       -0.5170
     27 O          22.9711   77.3945   -8.3132 O.3     1  UNL1       -0.4371
     28 O          23.3476   75.7911  -10.3609 O.3     1  UNL1       -0.2865
     29 C          24.4773   74.9196  -10.2880 C.3     1  UNL1        0.2611
     30 C          25.7606   75.7488  -10.3628 C.3     1  UNL1        0.1582
     31 C          25.7708   76.5391  -11.6761 C.3     1  UNL1        0.1625
     32 C          25.5569   75.5626  -12.8375 C.3     1  UNL1        0.1686
     33 C          24.2871   74.7494  -12.5774 C.3     1  UNL1        0.1760
     34 O          27.0284   77.2001  -11.8274 O.3     1  UNL1       -0.3801
     35 O          25.4164   76.2938  -14.0570 O.3     1  UNL1       -0.3794
     36 O          24.4347   73.9966  -11.3741 O.3     1  UNL1       -0.3263
     37 H          26.9909   77.6839  -12.6640 H       1  UNL1        0.2105
     38 H          25.2832   75.6422  -14.7600 H       1  UNL1        0.2105
     39 C          26.9593   76.8467   -8.5484 C.2     1  UNL1        0.2231
     40 C          27.0103   77.8020   -7.3834 C.3     1  UNL1        0.0946
     41 N          25.8107   76.6770   -9.2313 N.am    1  UNL1       -0.2994
     42 O          27.9523   76.2302   -8.8709 O.2     1  UNL1       -0.2751
     43 H          25.0158   77.1701   -8.9733 H       1  UNL1        0.1496
     44 C          24.0465   73.7934  -13.7476 C.3     1  UNL1        0.1693
     45 O          23.6664   72.5108  -13.2450 O.3     1  UNL1       -0.3794
     46 H          23.5251   71.9402  -14.0125 H       1  UNL1        0.2105
@<TRIPOS>BOND
     1    29    30    1
     2    29    28    1
     3    29    36    1
     4    30    31    1
     5    30    41    1
     6    31    32    1
     7    31    34    1
     8    32    33    1
     9    32    35    1
    10    33    44    1
    11    33    36    1
    12    44    45    1
    13    39    40    1
    14    39    41   am
    15    39    42    2
    16    41    43    1
    17    28    25    1
    18    34    37    1
    19    35    38    1
    20    45    46    1
    21    15    16   ar
    22    15    20   ar
    23    15     6    1
    24    16    17   ar
    25    16    21    2
    26    17    18   ar
    27    17    23    1
    28    18    19   ar
    29    18    22    2
    30    19    20   ar
    31     6     7    1
    32     6    11    1
    33     7     8    1
    34     7     9    1
    35     8    13    1
    36     9    10    1
    37     9    12    1
    38    10    11    1
    39    10     5    1
    40    12    14    1
    41     5     4    1
    42     4     1    1
    43     1     2    2
    44     1     3    1
    45     1    24    1
    46    24    25    1
    47    25    26    2
    48    25    27    1
@<TRIPOS>MOLECULE
UD1
 46 48 0 0 0
SMALL
GASTEIGER

@<TRIPOS>ATOM
      1 P          22.3355   71.7239   -2.9701 P.3     1  UNL1        0.2189
      2 O          22.7677   70.5009   -2.2587 O.2     1  UNL1       -0.5170
      3 O          23.6221   72.4670   -3.5905 O.3     1  UNL1       -0.4371
      4 O          21.5932   72.7111   -1.9370 O.3     1  UNL1       -0.3112
      5 C          22.6155   73.4142   -1.2293 C.3     1  UNL1        0.1811
      6 C          22.6198   73.3601    2.3658 C.3     1  UNL1        0.2383
      7 C          21.2249   72.8135    1.9710 C.3     1  UNL1        0.1895
      8 O          20.7499   71.8775    2.9393 O.3     1  UNL1       -0.3779
      9 C          21.5210   72.1105    0.6207 C.3     1  UNL1        0.1713
     10 C          22.8306   72.7633    0.1379 C.3     1  UNL1        0.1764
     11 O          23.1934   73.7642    1.1043 O.3     1  UNL1       -0.3308
     12 O          21.6970   70.7056    0.8160 O.3     1  UNL1       -0.3794
     13 H          19.8820   71.5771    2.6363 H       1  UNL1        0.2106
     14 H          20.8655   70.3671    1.1739 H       1  UNL1        0.2105
     15 N          22.4925   74.5069    3.2658 N.ar    1  UNL1       -0.2551
     16 C          22.5142   74.3152    4.5963 C.ar    1  UNL1        0.3323
     17 N          22.4031   75.3520    5.4478 N.ar    1  UNL1       -0.2743
     18 C          22.2581   76.6066    4.9757 C.ar    1  UNL1        0.2626
     19 C          22.2277   76.8219    3.5773 C.ar    1  UNL1        0.0795
     20 C          22.3466   75.7647    2.7457 C.ar    1  UNL1        0.0869
     21 O          22.6443   73.1896    5.0375 O.2     1  UNL1       -0.2464
     22 O          22.1528   77.5441    5.7447 O.2     1  UNL1       -0.2670
     23 H          22.4255   75.1959    6.4046 H       1  UNL1        0.1734
     24 O          21.3216   71.3259   -4.1544 O.3     1  UNL1       -0.2703
     25 P          21.2190   72.6034   -5.1275 P.3     1  UNL1        0.2208
     26 O          22.4274   72.6734   -5.9783 O.2     1  UNL1       -0.5170
     27 O          21.1075   73.9445   -4.2438 O.3     1  UNL1       -0.4371
     28 O          19.9139   72.4664   -6.0594 O.3     1  UNL1       -0.2865
     29 C          18.7788   72.6647   -5.2147 C.3     1  UNL1        0.2611
     30 C          17.8193   71.4838   -5.3726 C.3     1  UNL1        0.1582
     31 C          17.3899   71.3797   -6.8403 C.3     1  UNL1        0.1625
     32 C          16.8333   72.7362   -7.2856 C.3     1  UNL1        0.1686
     33 C          17.8687   73.8223   -6.9861 C.3     1  UNL1        0.1760
     34 O          16.3808   70.3771   -6.9740 O.3     1  UNL1       -0.3801
     35 O          16.5635   72.7049   -8.6884 O.3     1  UNL1       -0.3794
     36 O          18.1201   73.8747   -5.5824 O.3     1  UNL1       -0.3263
     37 H          16.1410   70.3452   -7.9104 H       1  UNL1        0.2105
     38 H          16.2165   73.5764   -8.9260 H       1  UNL1        0.2105
     39 C          18.1929   69.6690   -3.7911 C.2     1  UNL1        0.2231
     40 C          18.8872   68.3968   -3.3766 C.3     1  UNL1        0.0946
     41 N          18.4932   70.2477   -4.9697 N.am    1  UNL1       -0.2994
     42 O          17.3640   70.1722   -3.0631 O.2     1  UNL1       -0.2751
     43 H          19.1567   69.8454   -5.5524 H       1  UNL1        0.1496
     44 C          17.3356   75.1770   -7.4569 C.3     1  UNL1        0.1693
     45 O          17.8666   75.4752   -8.7497 O.3     1  UNL1       -0.3794
     46 H          17.5071   76.3345   -9.0084 H       1  UNL1        0.2105
@<TRIPOS>BOND
     1    29    30    1
     2    29    28    1
     3    29    36    1
     4    30    31    1
     5    30    41    1
     6    31    32    1
     7    31    34    1
     8    32    33    1
     9    32    35    1
    10    33    44    1
    11    33    36    1
    12    44    45    1
    13    39    40    1
    14    39    41   am
    15    39    42    2
    16    41    43    1
    17    28    25    1
    18    34    37    1
    19    35    38    1
    20    45    46    1
    21    15    16   ar
    22    15    20   ar
    23    15     6    1
    24    16    17   ar
    25    16    21    2
    26    17    18   ar
    27    17    23    1
    28    18    19   ar
    29    18    22    2
    30    19    20   ar
    31     6     7    1
    32     6    11    1
    33     7     8    1
    34     7     9    1
    35     8    13    1
    36     9    10    1
    37     9    12    1
    38    10    11    1
    39    10     5    1
    40    12    14    1
    41     5     4    1
    42     4     1    1
    43     1     2    2
    44     1     3    1
    45     1    24    1
    46    24    25    1
    47    25    26    2
    48    25    27    1
