@<TRIPOS>MOLECULE
*****
 43 45 0 0 0
SMALL
GASTEIGER

@<TRIPOS>ATOM
      1 P          22.8895   71.5800   -2.5062 P.3     1  UNL1        0.2189
      2 O          23.5863   72.9791   -2.9239 O.co2   1  UNL1       -0.4371
      3 O          23.3808   70.3780   -3.2581 O.2     1  UNL1       -0.5170
      4 O          21.3049   71.8843   -2.6259 O.3     1  UNL1       -0.3112
      5 C          20.5406   71.1340   -3.5537 C.3     1  UNL1        0.1811
      6 O          18.6727   72.0799   -4.7329 O.3     1  UNL1       -0.3308
      7 O          16.9580   70.9326   -2.5570 O.3     1  UNL1       -0.3794
      8 O          16.6300   69.1359   -4.5821 O.3     1  UNL1       -0.3779
      9 C          18.1388   70.3970   -3.1522 C.3     1  UNL1        0.1713
     10 C          17.8360   69.8710   -4.5398 C.3     1  UNL1        0.1895
     11 C          19.0814   71.5563   -3.4502 C.3     1  UNL1        0.1764
     12 C          17.7691   71.1515   -5.3545 C.3     1  UNL1        0.2383
     13 H          16.3407   70.2107   -2.3574 H       1  UNL1        0.2105
     14 H          16.7229   68.3309   -4.0491 H       1  UNL1        0.2106
     15 O          16.0029   70.4819   -7.4546 O.2     1  UNL1       -0.2464
     16 O          19.4167   70.4168  -10.5502 O.2     1  UNL1       -0.2670
     17 N          18.1694   70.9540   -6.7191 N.ar    1  UNL1       -0.2551
     18 N          17.7042   70.4502   -8.9943 N.ar    1  UNL1       -0.2743
     19 C          17.2038   70.6192   -7.6969 C.ar    1  UNL1        0.3323
     20 C          19.5062   71.0928   -7.0762 C.ar    1  UNL1        0.0869
     21 C          19.9673   70.9270   -8.3177 C.ar    1  UNL1        0.0795
     22 C          19.0238   70.5760   -9.3986 C.ar    1  UNL1        0.2626
     23 H          17.0498   70.2163   -9.6920 H       1  UNL1        0.1734
     24 O          23.1279   71.5179   -0.9087 O.3     1  UNL1       -0.2703
     25 P          22.3983   70.6460    0.2404 P.3     1  UNL1        0.2208
     26 O          23.4328   69.4285    0.4956 O.co2   1  UNL1       -0.4371
     27 O          21.0044   70.2112   -0.1089 O.2     1  UNL1       -0.5170
     28 O          22.5020   71.5545    1.5704 O.3     1  UNL1       -0.2858
     29 O          21.4307   72.4542    3.4834 O.3     1  UNL1       -0.3258
     30 O          21.4770   75.8292    1.1047 O.3     1  UNL1       -0.3794
     31 O          23.2394   75.6641    3.3662 O.3     1  UNL1       -0.3794
     32 O          20.9753   73.2354   -0.0786 O.3     1  UNL1       -0.3775
     33 C          21.9827   74.5996    1.6318 C.3     1  UNL1        0.1715
     34 C          22.1592   74.7622    3.1428 C.3     1  UNL1        0.1694
     35 C          20.9911   73.4792    1.3238 C.3     1  UNL1        0.1967
     36 C          22.4422   73.4124    3.8159 C.3     1  UNL1        0.1761
     37 C          21.3361   72.1956    2.0812 C.3     1  UNL1        0.2704
     38 H          22.1021   76.5447    1.2964 H       1  UNL1        0.2105
     39 H          23.0484   76.5123    2.9357 H       1  UNL1        0.2105
     40 H          20.7554   74.0554   -0.5468 H       1  UNL1        0.2106
     41 O          21.2013   73.1303    5.8382 O.3     1  UNL1       -0.3794
     42 C          22.4654   73.5263    5.3386 C.3     1  UNL1        0.1693
     43 H          21.2015   73.1974    6.8063 H       1  UNL1        0.2105
@<TRIPOS>UNITY_ATOM_ATTR
2 1
charge -1
26 1
charge -1
@<TRIPOS>BOND
     1    25    28    1
     2    25    24    1
     3    25    26    1
     4    25    27    2
     5     1     4    1
     6     1    24    1
     7     1     2    1
     8     1     3    2
     9     6    11    1
    10     6    12    1
    11    29    36    1
    12    29    37    1
    13     7     9    1
    14     7    13    1
    15     8    10    1
    16     8    14    1
    17    28    37    1
    18     4     5    1
    19    30    33    1
    20    30    38    1
    21    31    34    1
    22    31    39    1
    23    32    35    1
    24    32    40    1
    25    41    42    1
    26    41    43    1
    27    15    19    2
    28    16    22    2
    29    17    12    1
    30    17    19   ar
    31    17    20   ar
    32    18    19   ar
    33    18    22   ar
    34    18    23    1
    35     9    10    1
    36     9    11    1
    37    10    12    1
    38    11     5    1
    39    33    34    1
    40    33    35    1
    41    34    36    1
    42    35    37    1
    43    36    42    1
    44    20    21   ar
    45    21    22   ar
@<TRIPOS>MOLECULE
*****
 43 45 0 0 0
SMALL
GASTEIGER

@<TRIPOS>ATOM
      1 P          21.6244   73.9521   -5.6805 P.3     1  UNL1        0.2189
      2 O          20.4807   74.5655   -4.7145 O.co2   1  UNL1       -0.4371
      3 O          22.7747   74.8728   -5.9647 O.2     1  UNL1       -0.5170
      4 O          20.8030   73.4338   -6.9745 O.3     1  UNL1       -0.3112
      5 C          21.4222   72.4956   -7.8371 C.3     1  UNL1        0.1811
      6 O          19.8943   70.6620   -8.1151 O.3     1  UNL1       -0.3308
      7 O          18.4918   72.3808  -10.1324 O.3     1  UNL1       -0.3794
      8 O          16.9153   72.6500   -7.9236 O.3     1  UNL1       -0.3779
      9 C          19.1327   72.7586   -8.9151 C.3     1  UNL1        0.1713
     10 C          18.2836   72.3567   -7.7271 C.3     1  UNL1        0.1895
     11 C          20.3630   71.8773   -8.7394 C.3     1  UNL1        0.1764
     12 C          18.5545   70.8645   -7.6367 C.3     1  UNL1        0.2383
     13 H          17.7031   72.9303  -10.2665 H       1  UNL1        0.2105
     14 H          16.7946   73.6111   -7.9745 H       1  UNL1        0.2106
     15 O          16.1899   69.8509   -6.4709 O.2     1  UNL1       -0.2464
     16 O          18.3098   69.0012   -2.4678 O.2     1  UNL1       -0.2670
     17 N          18.4601   70.3713   -6.2916 N.ar    1  UNL1       -0.2551
     18 N          17.2474   69.4285   -4.4787 N.ar    1  UNL1       -0.2743
     19 C          17.2253   69.8849   -5.8027 C.ar    1  UNL1        0.3323
     20 C          19.5839   70.3729   -5.4725 C.ar    1  UNL1        0.0869
     21 C          19.5881   69.9354   -4.2116 C.ar    1  UNL1        0.0795
     22 C          18.3384   69.4107   -3.6242 C.ar    1  UNL1        0.2626
     23 H          16.3983   69.0853   -4.1165 H       1  UNL1        0.1734
     24 O          22.0316   72.5773   -4.9341 O.3     1  UNL1       -0.2703
     25 P          22.9788   72.3054   -3.6527 P.3     1  UNL1        0.2208
     26 O          24.2702   73.2362   -3.9417 O.co2   1  UNL1       -0.4371
     27 O          23.2989   70.8572   -3.4203 O.2     1  UNL1       -0.5170
     28 O          22.2218   73.0286   -2.4243 O.3     1  UNL1       -0.2858
     29 O          21.2308   71.2358   -1.2325 O.3     1  UNL1       -0.3258
     30 O          20.0842   74.3638    1.2072 O.3     1  UNL1       -0.3794
     31 O          22.1249   72.5482    2.0943 O.3     1  UNL1       -0.3794
     32 O          20.1038   74.7067   -1.6671 O.3     1  UNL1       -0.3775
     33 C          20.9551   73.6519    0.3239 C.3     1  UNL1        0.1715
     34 C          21.2909   72.3040    0.9650 C.3     1  UNL1        0.1694
     35 C          20.2502   73.4492   -1.0160 C.3     1  UNL1        0.1967
     36 C          21.9996   71.3775   -0.0322 C.3     1  UNL1        0.1761
     37 C          21.0128   72.4730   -1.9135 C.3     1  UNL1        0.2704
     38 H          20.5260   74.4962    2.0597 H       1  UNL1        0.2105
     39 H          21.6659   73.1348    2.7159 H       1  UNL1        0.2105
     40 H          19.6193   75.3156   -1.0890 H       1  UNL1        0.2106
     41 O          23.5410   69.5811    0.2932 O.3     1  UNL1       -0.3794
     42 C          22.2028   69.9744    0.5355 C.3     1  UNL1        0.1693
     43 H          23.6850   68.6900    0.6495 H       1  UNL1        0.2105
@<TRIPOS>UNITY_ATOM_ATTR
2 1
charge -1
26 1
charge -1
@<TRIPOS>BOND
     1    25    28    1
     2    25    24    1
     3    25    26    1
     4    25    27    2
     5     1     4    1
     6     1    24    1
     7     1     2    1
     8     1     3    2
     9     6    11    1
    10     6    12    1
    11    29    36    1
    12    29    37    1
    13     7     9    1
    14     7    13    1
    15     8    10    1
    16     8    14    1
    17    28    37    1
    18     4     5    1
    19    30    33    1
    20    30    38    1
    21    31    34    1
    22    31    39    1
    23    32    35    1
    24    32    40    1
    25    41    42    1
    26    41    43    1
    27    15    19    2
    28    16    22    2
    29    17    12    1
    30    17    19   ar
    31    17    20   ar
    32    18    19   ar
    33    18    22   ar
    34    18    23    1
    35     9    10    1
    36     9    11    1
    37    10    12    1
    38    11     5    1
    39    33    34    1
    40    33    35    1
    41    34    36    1
    42    35    37    1
    43    36    42    1
    44    20    21   ar
    45    21    22   ar
@<TRIPOS>MOLECULE
*****
 43 45 0 0 0
SMALL
GASTEIGER

@<TRIPOS>ATOM
      1 P          22.7625   71.6361   -2.1410 P.3     1  UNL1        0.2189
      2 O          23.1915   73.1884   -2.2952 O.co2   1  UNL1       -0.4371
      3 O          23.4549   70.6910   -3.0784 O.2     1  UNL1       -0.5170
      4 O          21.1479   71.6676   -2.2406 O.3     1  UNL1       -0.3112
      5 C          20.5467   71.5387   -3.5172 C.3     1  UNL1        0.1811
      6 O          18.5953   72.3032   -4.6927 O.3     1  UNL1       -0.3308
      7 O          17.0055   71.1138   -2.4458 O.3     1  UNL1       -0.3794
      8 O          16.7765   69.2260   -4.4003 O.3     1  UNL1       -0.3779
      9 C          18.2123   70.6442   -3.0444 C.3     1  UNL1        0.1713
     10 C          17.9260   70.0478   -4.4067 C.3     1  UNL1        0.1895
     11 C          19.0624   71.8574   -3.4006 C.3     1  UNL1        0.1764
     12 C          17.7520   71.2898   -5.2642 C.3     1  UNL1        0.2383
     13 H          16.4461   70.3568   -2.2093 H       1  UNL1        0.2105
     14 H          16.9369   68.4497   -3.8414 H       1  UNL1        0.2106
     15 O          16.0328   70.3116   -7.2805 O.2     1  UNL1       -0.2464
     16 O          19.3615   70.4948  -10.4629 O.2     1  UNL1       -0.2670
     17 N          18.1430   71.0726   -6.6285 N.ar    1  UNL1       -0.2551
     18 N          17.6916   70.4038   -8.8635 N.ar    1  UNL1       -0.2743
     19 C          17.2031   70.5774   -7.5622 C.ar    1  UNL1        0.3323
     20 C          19.4456   71.3503   -7.0286 C.ar    1  UNL1        0.0869
     21 C          19.8959   71.1780   -8.2731 C.ar    1  UNL1        0.0795
     22 C          18.9776   70.6641   -9.3097 C.ar    1  UNL1        0.2626
     23 H          17.0547   70.0594   -9.5310 H       1  UNL1        0.1734
     24 O          23.0241   71.3408   -0.5734 O.3     1  UNL1       -0.2703
     25 P          22.1875   70.4631    0.4956 P.3     1  UNL1        0.2208
     26 O          23.3325   69.8991    1.4897 O.co2   1  UNL1       -0.4371
     27 O          21.3249   69.4005   -0.1215 O.2     1  UNL1       -0.5170
     28 O          21.3826   71.5503    1.3760 O.3     1  UNL1       -0.2858
     29 O          21.7541   73.8118    0.7728 O.3     1  UNL1       -0.3258
     30 O          19.9776   74.3943    4.4545 O.3     1  UNL1       -0.3794
     31 O          18.5143   75.0088    2.0610 O.3     1  UNL1       -0.3794
     32 O          21.8199   72.1945    4.0721 O.3     1  UNL1       -0.3775
     33 C          20.1927   73.7416    3.2003 C.3     1  UNL1        0.1715
     34 C          19.9149   74.7482    2.0821 C.3     1  UNL1        0.1694
     35 C          21.6375   73.2502    3.1347 C.3     1  UNL1        0.1967
     36 C          20.3784   74.2078    0.7226 C.3     1  UNL1        0.1761
     37 C          22.0109   72.7802    1.7276 C.3     1  UNL1        0.2704
     38 H          19.0618   74.7083    4.5028 H       1  UNL1        0.2105
     39 H          18.2344   75.3490    2.9253 H       1  UNL1        0.2105
     40 H          21.5805   72.5047    4.9588 H       1  UNL1        0.2106
     41 O          20.8075   74.7220   -1.5710 O.3     1  UNL1       -0.3794
     42 C          20.2559   75.2558   -0.3814 C.3     1  UNL1        0.1693
     43 H          20.7362   75.3780   -2.2825 H       1  UNL1        0.2105
@<TRIPOS>UNITY_ATOM_ATTR
2 1
charge -1
26 1
charge -1
@<TRIPOS>BOND
     1    25    28    1
     2    25    24    1
     3    25    26    1
     4    25    27    2
     5     1     4    1
     6     1    24    1
     7     1     2    1
     8     1     3    2
     9     6    11    1
    10     6    12    1
    11    29    36    1
    12    29    37    1
    13     7     9    1
    14     7    13    1
    15     8    10    1
    16     8    14    1
    17    28    37    1
    18     4     5    1
    19    30    33    1
    20    30    38    1
    21    31    34    1
    22    31    39    1
    23    32    35    1
    24    32    40    1
    25    41    42    1
    26    41    43    1
    27    15    19    2
    28    16    22    2
    29    17    12    1
    30    17    19   ar
    31    17    20   ar
    32    18    19   ar
    33    18    22   ar
    34    18    23    1
    35     9    10    1
    36     9    11    1
    37    10    12    1
    38    11     5    1
    39    33    34    1
    40    33    35    1
    41    34    36    1
    42    35    37    1
    43    36    42    1
    44    20    21   ar
    45    21    22   ar
@<TRIPOS>MOLECULE
*****
 43 45 0 0 0
SMALL
GASTEIGER

@<TRIPOS>ATOM
      1 P          23.0359   72.0443   -3.1777 P.3     1  UNL1        0.2189
      2 O          23.5769   72.8809   -4.4524 O.co2   1  UNL1       -0.4371
      3 O          23.5033   70.6201   -3.1096 O.2     1  UNL1       -0.5170
      4 O          21.4326   72.2561   -3.2263 O.3     1  UNL1       -0.3112
      5 C          20.6143   71.1491   -3.5621 C.3     1  UNL1        0.1811
      6 O          18.7177   72.0826   -4.7047 O.3     1  UNL1       -0.3308
      7 O          17.0508   70.9042   -2.5084 O.3     1  UNL1       -0.3794
      8 O          16.7082   69.1166   -4.5390 O.3     1  UNL1       -0.3779
      9 C          18.2271   70.3846   -3.1261 C.3     1  UNL1        0.1713
     10 C          17.9071   69.8639   -4.5118 C.3     1  UNL1        0.1895
     11 C          19.1527   71.5555   -3.4322 C.3     1  UNL1        0.1764
     12 C          17.8136   71.1487   -5.3173 C.3     1  UNL1        0.2383
     13 H          16.4444   70.1748   -2.3032 H       1  UNL1        0.2105
     14 H          16.8181   68.3093   -4.0126 H       1  UNL1        0.2106
     15 O          16.0338   70.3996   -7.3786 O.2     1  UNL1       -0.2464
     16 O          19.3826   70.4667  -10.5444 O.2     1  UNL1       -0.2670
     17 N          18.1934   70.9636   -6.6895 N.ar    1  UNL1       -0.2551
     18 N          17.7026   70.4338   -8.9533 N.ar    1  UNL1       -0.2743
     19 C          17.2226   70.5859   -7.6462 C.ar    1  UNL1        0.3323
     20 C          19.5156   71.1567   -7.0746 C.ar    1  UNL1        0.0869
     21 C          19.9575   71.0064   -8.3250 C.ar    1  UNL1        0.0795
     22 C          19.0072   70.6131   -9.3853 C.ar    1  UNL1        0.2626
     23 H          17.0443   70.1707   -9.6368 H       1  UNL1        0.1734
     24 O          23.4856   72.9606   -1.9242 O.3     1  UNL1       -0.2703
     25 P          23.0779   74.4695   -1.5120 P.3     1  UNL1        0.2208
     26 O          21.8851   74.8269   -2.5450 O.co2   1  UNL1       -0.4371
     27 O          24.2217   75.4418   -1.5265 O.2     1  UNL1       -0.5170
     28 O          22.3464   74.3186   -0.0812 O.3     1  UNL1       -0.2858
     29 O          21.5470   72.1034    0.1849 O.3     1  UNL1       -0.3258
     30 O          19.8781   73.8161    3.5514 O.3     1  UNL1       -0.3794
     31 O          22.0976   72.0147    3.8288 O.3     1  UNL1       -0.3794
     32 O          19.9899   75.3111    1.0750 O.3     1  UNL1       -0.3775
     33 C          20.8775   73.6234    2.5466 C.3     1  UNL1        0.1715
     34 C          21.3588   72.1730    2.6208 C.3     1  UNL1        0.1694
     35 C          20.2710   73.9192    1.1762 C.3     1  UNL1        0.1967
     36 C          22.2316   71.8164    1.4100 C.3     1  UNL1        0.1761
     37 C          21.1991   73.4819    0.0415 C.3     1  UNL1        0.2704
     38 H          20.2569   73.6304    4.4240 H       1  UNL1        0.2105
     39 H          21.5353   72.2435    4.5855 H       1  UNL1        0.2105
     40 H          19.4013   75.5753    1.7987 H       1  UNL1        0.2106
     41 O          21.6741   69.6627    0.5383 O.3     1  UNL1       -0.3794
     42 C          22.5924   70.3327    1.3822 C.3     1  UNL1        0.1693
     43 H          21.8917   68.7173    0.5108 H       1  UNL1        0.2105
@<TRIPOS>UNITY_ATOM_ATTR
2 1
charge -1
26 1
charge -1
@<TRIPOS>BOND
     1    25    28    1
     2    25    24    1
     3    25    26    1
     4    25    27    2
     5     1     4    1
     6     1    24    1
     7     1     2    1
     8     1     3    2
     9     6    11    1
    10     6    12    1
    11    29    36    1
    12    29    37    1
    13     7     9    1
    14     7    13    1
    15     8    10    1
    16     8    14    1
    17    28    37    1
    18     4     5    1
    19    30    33    1
    20    30    38    1
    21    31    34    1
    22    31    39    1
    23    32    35    1
    24    32    40    1
    25    41    42    1
    26    41    43    1
    27    15    19    2
    28    16    22    2
    29    17    12    1
    30    17    19   ar
    31    17    20   ar
    32    18    19   ar
    33    18    22   ar
    34    18    23    1
    35     9    10    1
    36     9    11    1
    37    10    12    1
    38    11     5    1
    39    33    34    1
    40    33    35    1
    41    34    36    1
    42    35    37    1
    43    36    42    1
    44    20    21   ar
    45    21    22   ar
@<TRIPOS>MOLECULE
*****
 43 45 0 0 0
SMALL
GASTEIGER

@<TRIPOS>ATOM
      1 P          21.5879   70.5223   -1.0337 P.3     1  UNL1        0.2189
      2 O          23.1101   70.7924   -1.5105 O.co2   1  UNL1       -0.4371
      3 O          21.4462   69.6022    0.1431 O.2     1  UNL1       -0.5170
      4 O          20.8345   70.0537   -2.3867 O.3     1  UNL1       -0.3112
      5 C          20.5698   71.0247   -3.3841 C.3     1  UNL1        0.1811
      6 O          18.7219   72.0351   -4.5409 O.3     1  UNL1       -0.3308
      7 O          16.9801   70.8471   -2.4089 O.3     1  UNL1       -0.3794
      8 O          16.6342   69.1194   -4.4902 O.3     1  UNL1       -0.3779
      9 C          18.1553   70.3123   -3.0156 C.3     1  UNL1        0.1713
     10 C          17.8510   69.8343   -4.4201 C.3     1  UNL1        0.1895
     11 C          19.1167   71.4658   -3.2735 C.3     1  UNL1        0.1764
     12 C          17.8072   71.1404   -5.1948 C.3     1  UNL1        0.2383
     13 H          16.3511   70.1289   -2.2343 H       1  UNL1        0.2105
     14 H          16.7125   68.2969   -3.9821 H       1  UNL1        0.2106
     15 O          16.0635   70.4264   -7.2990 O.2     1  UNL1       -0.2464
     16 O          19.4660   70.5496  -10.4053 O.2     1  UNL1       -0.2670
     17 N          18.2106   70.9793   -6.5633 N.ar    1  UNL1       -0.2551
     18 N          17.7591   70.4885   -8.8440 N.ar    1  UNL1       -0.2743
     19 C          17.2566   70.6178   -7.5429 C.ar    1  UNL1        0.3323
     20 C          19.5391   71.1796   -6.9223 C.ar    1  UNL1        0.0869
     21 C          20.0024   71.0510   -8.1673 C.ar    1  UNL1        0.0795
     22 C          19.0708   70.6757   -9.2504 C.ar    1  UNL1        0.2626
     23 H          17.1127   70.2370   -9.5431 H       1  UNL1        0.1734
     24 O          21.0118   72.0136   -0.7949 O.3     1  UNL1       -0.2703
     25 P          21.7662   73.3995   -0.4438 P.3     1  UNL1        0.2208
     26 O          20.6581   74.5246   -0.7956 O.co2   1  UNL1       -0.4371
     27 O          23.0789   73.5813   -1.1491 O.2     1  UNL1       -0.5170
     28 O          21.8647   73.4142    1.1671 O.3     1  UNL1       -0.2858
     29 O          20.5623   74.8019    2.5794 O.3     1  UNL1       -0.3258
     30 O          23.8929   74.3584    4.9796 O.3     1  UNL1       -0.3794
     31 O          21.4540   73.0111    5.6757 O.3     1  UNL1       -0.3794
     32 O          24.2042   74.6399    2.1155 O.3     1  UNL1       -0.3775
     33 C          22.9105   73.9468    4.0252 C.3     1  UNL1        0.1715
     34 C          21.5336   74.0336    4.6865 C.3     1  UNL1        0.1694
     35 C          22.9812   74.8666    2.8077 C.3     1  UNL1        0.1967
     36 C          20.4113   73.8661    3.6533 C.3     1  UNL1        0.1761
     37 C          21.7928   74.6528    1.8685 C.3     1  UNL1        0.2704
     38 H          23.8536   73.7781    5.7550 H       1  UNL1        0.2105
     39 H          22.1684   73.1281    6.3216 H       1  UNL1        0.2105
     40 H          24.9488   74.7788    2.7207 H       1  UNL1        0.2106
     41 O          18.6619   72.9568    5.0031 O.3     1  UNL1       -0.3794
     42 C          19.0319   74.1057    4.2632 C.3     1  UNL1        0.1693
     43 H          17.7861   73.0951    5.3974 H       1  UNL1        0.2105
@<TRIPOS>UNITY_ATOM_ATTR
2 1
charge -1
26 1
charge -1
@<TRIPOS>BOND
     1    25    28    1
     2    25    24    1
     3    25    26    1
     4    25    27    2
     5     1     4    1
     6     1    24    1
     7     1     2    1
     8     1     3    2
     9     6    11    1
    10     6    12    1
    11    29    36    1
    12    29    37    1
    13     7     9    1
    14     7    13    1
    15     8    10    1
    16     8    14    1
    17    28    37    1
    18     4     5    1
    19    30    33    1
    20    30    38    1
    21    31    34    1
    22    31    39    1
    23    32    35    1
    24    32    40    1
    25    41    42    1
    26    41    43    1
    27    15    19    2
    28    16    22    2
    29    17    12    1
    30    17    19   ar
    31    17    20   ar
    32    18    19   ar
    33    18    22   ar
    34    18    23    1
    35     9    10    1
    36     9    11    1
    37    10    12    1
    38    11     5    1
    39    33    34    1
    40    33    35    1
    41    34    36    1
    42    35    37    1
    43    36    42    1
    44    20    21   ar
    45    21    22   ar
@<TRIPOS>MOLECULE
*****
 43 45 0 0 0
SMALL
GASTEIGER

@<TRIPOS>ATOM
      1 P          22.6187   72.7532   -3.2678 P.3     1  UNL1        0.2189
      2 O          23.9964   72.6286   -4.1066 O.co2   1  UNL1       -0.4371
      3 O          22.7020   72.2973   -1.8407 O.2     1  UNL1       -0.5170
      4 O          21.5325   71.9848   -4.1885 O.3     1  UNL1       -0.3112
      5 C          20.7553   70.9559   -3.6011 C.3     1  UNL1        0.1811
      6 O          18.8948   72.0095   -4.6978 O.3     1  UNL1       -0.3308
      7 O          17.2059   70.9161   -2.4745 O.3     1  UNL1       -0.3794
      8 O          16.7154   69.1674   -4.5087 O.3     1  UNL1       -0.3779
      9 C          18.3361   70.3319   -3.1200 C.3     1  UNL1        0.1713
     10 C          17.9572   69.8417   -4.5020 C.3     1  UNL1        0.1895
     11 C          19.3236   71.4478   -3.4380 C.3     1  UNL1        0.1764
     12 C          17.9242   71.1357   -5.2972 C.3     1  UNL1        0.2383
     13 H          16.5613   70.2226   -2.2613 H       1  UNL1        0.2105
     14 H          16.7877   68.3511   -3.9899 H       1  UNL1        0.2106
     15 O          16.0714   70.4422   -7.3132 O.2     1  UNL1       -0.2464
     16 O          19.3414   70.4043  -10.5608 O.2     1  UNL1       -0.2670
     17 N          18.2640   70.9387   -6.6782 N.ar    1  UNL1       -0.2551
     18 N          17.7011   70.4241   -8.9287 N.ar    1  UNL1       -0.2743
     19 C          17.2585   70.5913   -7.6103 C.ar    1  UNL1        0.3323
     20 C          19.5817   71.0905   -7.0961 C.ar    1  UNL1        0.0869
     21 C          19.9876   70.9262   -8.3568 C.ar    1  UNL1        0.0795
     22 C          18.9996   70.5625   -9.3930 C.ar    1  UNL1        0.2626
     23 H          17.0182   70.1814   -9.5954 H       1  UNL1        0.1734
     24 O          22.2186   74.3082   -3.4550 O.3     1  UNL1       -0.2703
     25 P          23.0459   75.5497   -4.0771 P.3     1  UNL1        0.2208
     26 O          24.5585   75.2785   -3.5708 O.co2   1  UNL1       -0.4371
     27 O          22.5016   76.8990   -3.7071 O.2     1  UNL1       -0.5170
     28 O          23.0888   75.2579   -5.6639 O.3     1  UNL1       -0.2858
     29 O          21.2754   76.1362   -6.9116 O.3     1  UNL1       -0.3258
     30 O          22.7907   73.5067   -9.7117 O.3     1  UNL1       -0.3794
     31 O          23.1497   76.3323  -10.0798 O.3     1  UNL1       -0.3794
     32 O          22.7464   72.7684   -6.9131 O.3     1  UNL1       -0.3775
     33 C          22.8591   74.4473   -8.6365 C.3     1  UNL1        0.1715
     34 C          22.2610   75.7705   -9.1181 C.3     1  UNL1        0.1694
     35 C          22.0715   73.9028   -7.4462 C.3     1  UNL1        0.1967
     36 C          22.0545   76.7431   -7.9491 C.3     1  UNL1        0.1761
     37 C          21.8811   74.9646   -6.3616 C.3     1  UNL1        0.2704
     38 H          23.2892   73.8462  -10.4705 H       1  UNL1        0.2105
     39 H          23.2719   75.7081  -10.8123 H       1  UNL1        0.2105
     40 H          22.8605   72.1035   -7.6093 H       1  UNL1        0.2106
     41 O          20.6096   77.7293   -9.5765 O.3     1  UNL1       -0.3794
     42 C          21.3147   78.0074   -8.3808 C.3     1  UNL1        0.1693
     43 H          20.1337   78.5250   -9.8630 H       1  UNL1        0.2105
@<TRIPOS>UNITY_ATOM_ATTR
2 1
charge -1
26 1
charge -1
@<TRIPOS>BOND
     1    25    28    1
     2    25    24    1
     3    25    26    1
     4    25    27    2
     5     1     4    1
     6     1    24    1
     7     1     2    1
     8     1     3    2
     9     6    11    1
    10     6    12    1
    11    29    36    1
    12    29    37    1
    13     7     9    1
    14     7    13    1
    15     8    10    1
    16     8    14    1
    17    28    37    1
    18     4     5    1
    19    30    33    1
    20    30    38    1
    21    31    34    1
    22    31    39    1
    23    32    35    1
    24    32    40    1
    25    41    42    1
    26    41    43    1
    27    15    19    2
    28    16    22    2
    29    17    12    1
    30    17    19   ar
    31    17    20   ar
    32    18    19   ar
    33    18    22   ar
    34    18    23    1
    35     9    10    1
    36     9    11    1
    37    10    12    1
    38    11     5    1
    39    33    34    1
    40    33    35    1
    41    34    36    1
    42    35    37    1
    43    36    42    1
    44    20    21   ar
    45    21    22   ar
@<TRIPOS>MOLECULE
*****
 43 45 0 0 0
SMALL
GASTEIGER

@<TRIPOS>ATOM
      1 P          22.5996   73.5720   -4.3748 P.3     1  UNL1        0.2189
      2 O          22.8199   74.2511   -5.8267 O.co2   1  UNL1       -0.4371
      3 O          23.5199   72.4285   -4.0639 O.2     1  UNL1       -0.5170
      4 O          21.0184   73.2305   -4.3416 O.3     1  UNL1       -0.3112
      5 C          20.6076   71.9807   -3.8154 C.3     1  UNL1        0.1811
      6 O          18.4753   72.2644   -4.8862 O.3     1  UNL1       -0.3308
      7 O          17.2977   70.9183   -2.4796 O.3     1  UNL1       -0.3794
      8 O          17.3450   68.9079   -4.3214 O.3     1  UNL1       -0.3779
      9 C          18.5376   70.6655   -3.1383 C.3     1  UNL1        0.1713
     10 C          18.2996   69.9421   -4.4474 C.3     1  UNL1        0.1895
     11 C          19.0990   72.0009   -3.6103 C.3     1  UNL1        0.1764
     12 C          17.8249   71.0693   -5.3485 C.3     1  UNL1        0.2383
     13 H          16.9200   70.0800   -2.1688 H       1  UNL1        0.2105
     14 H          17.6935   68.2151   -3.7390 H       1  UNL1        0.2106
     15 O          15.9539   70.5714   -7.4050 O.2     1  UNL1       -0.2464
     16 O          19.2673   70.2519  -10.5926 O.2     1  UNL1       -0.2670
     17 N          18.1710   70.8528   -6.7250 N.ar    1  UNL1       -0.2551
     18 N          17.6052   70.4129   -8.9906 N.ar    1  UNL1       -0.2743
     19 C          17.1553   70.6100   -7.6788 C.ar    1  UNL1        0.3323
     20 C          19.5049   70.8827   -7.1172 C.ar    1  UNL1        0.0869
     21 C          19.9175   70.6915   -8.3719 C.ar    1  UNL1        0.0795
     22 C          18.9196   70.4318   -9.4296 C.ar    1  UNL1        0.2626
     23 H          16.9153   70.2417   -9.6721 H       1  UNL1        0.1734
     24 O          22.7215   74.8276   -3.3641 O.3     1  UNL1       -0.2703
     25 P          22.1178   75.0603   -1.8827 P.3     1  UNL1        0.2208
     26 O          20.5994   75.5382   -2.1717 O.co2   1  UNL1       -0.4371
     27 O          22.9150   76.0093   -1.0355 O.2     1  UNL1       -0.5170
     28 O          21.9677   73.5768   -1.2651 O.3     1  UNL1       -0.2858
     29 O          23.2951   73.6061    0.6980 O.3     1  UNL1       -0.3258
     30 O          21.8883   69.7297    0.9106 O.3     1  UNL1       -0.3794
     31 O          20.8770   71.7070    2.7314 O.3     1  UNL1       -0.3794
     32 O          22.5973   70.8699   -1.6540 O.3     1  UNL1       -0.3775
     33 C          21.8189   71.1264    0.6109 C.3     1  UNL1        0.1715
     34 C          22.0246   71.9065    1.9108 C.3     1  UNL1        0.1694
     35 C          22.9073   71.4741   -0.4029 C.3     1  UNL1        0.1967
     36 C          22.2294   73.4018    1.6330 C.3     1  UNL1        0.1761
     37 C          23.0623   72.9869   -0.5686 C.3     1  UNL1        0.2704
     38 H          21.1995   69.5022    1.5534 H       1  UNL1        0.2105
     39 H          20.7587   70.7587    2.8989 H       1  UNL1        0.2105
     40 H          22.5020   69.9124   -1.5357 H       1  UNL1        0.2106
     41 O          22.1006   75.4961    2.7760 O.3     1  UNL1       -0.3794
     42 C          22.5926   74.1744    2.8992 C.3     1  UNL1        0.1693
     43 H          22.3242   75.9995    3.5749 H       1  UNL1        0.2105
@<TRIPOS>UNITY_ATOM_ATTR
2 1
charge -1
26 1
charge -1
@<TRIPOS>BOND
     1    25    28    1
     2    25    24    1
     3    25    26    1
     4    25    27    2
     5     1     4    1
     6     1    24    1
     7     1     2    1
     8     1     3    2
     9     6    11    1
    10     6    12    1
    11    29    36    1
    12    29    37    1
    13     7     9    1
    14     7    13    1
    15     8    10    1
    16     8    14    1
    17    28    37    1
    18     4     5    1
    19    30    33    1
    20    30    38    1
    21    31    34    1
    22    31    39    1
    23    32    35    1
    24    32    40    1
    25    41    42    1
    26    41    43    1
    27    15    19    2
    28    16    22    2
    29    17    12    1
    30    17    19   ar
    31    17    20   ar
    32    18    19   ar
    33    18    22   ar
    34    18    23    1
    35     9    10    1
    36     9    11    1
    37    10    12    1
    38    11     5    1
    39    33    34    1
    40    33    35    1
    41    34    36    1
    42    35    37    1
    43    36    42    1
    44    20    21   ar
    45    21    22   ar
@<TRIPOS>MOLECULE
*****
 43 45 0 0 0
SMALL
GASTEIGER

@<TRIPOS>ATOM
      1 P          22.3694   72.7467   -4.5078 P.3     1  UNL1        0.2189
      2 O          23.4108   71.8306   -3.6749 O.co2   1  UNL1       -0.4371
      3 O          22.7858   73.0601   -5.9148 O.2     1  UNL1       -0.5170
      4 O          22.1220   74.0249   -3.5470 O.3     1  UNL1       -0.3112
      5 C          20.8815   74.7045   -3.6320 C.3     1  UNL1        0.1811
      6 O          20.2689   74.4789   -1.3195 O.3     1  UNL1       -0.3308
      7 O          21.4363   77.2142   -0.9372 O.3     1  UNL1       -0.3794
      8 O          23.4177   75.5872   -0.0083 O.3     1  UNL1       -0.3779
      9 C          21.8706   76.1597   -1.7943 C.3     1  UNL1        0.1713
     10 C          22.5403   75.0676   -0.9865 C.3     1  UNL1        0.1895
     11 C          20.6331   75.4480   -2.3268 C.3     1  UNL1        0.1764
     12 C          21.3477   74.3485   -0.3793 C.3     1  UNL1        0.2383
     13 H          22.2093   77.6836   -0.5852 H       1  UNL1        0.2105
     14 H          24.1595   76.0349   -0.4442 H       1  UNL1        0.2106
     15 O          22.8645   73.3315    1.7754 O.2     1  UNL1       -0.2464
     16 O          22.2705   68.9798    0.3787 O.2     1  UNL1       -0.2670
     17 N          21.6050   72.9538   -0.1554 N.ar    1  UNL1       -0.2551
     18 N          22.5674   71.1655    1.0783 N.ar    1  UNL1       -0.2743
     19 C          22.3796   72.5482    0.9563 C.ar    1  UNL1        0.3323
     20 C          21.0913   72.0048   -1.0325 C.ar    1  UNL1        0.0869
     21 C          21.2805   70.6901   -0.9029 C.ar    1  UNL1        0.0795
     22 C          22.0785   70.1829    0.2320 C.ar    1  UNL1        0.2626
     23 H          23.1041   70.8595    1.8451 H       1  UNL1        0.1734
     24 O          20.9828   71.9251   -4.3837 O.3     1  UNL1       -0.2703
     25 P          19.7346   71.7895   -5.4018 P.3     1  UNL1        0.2208
     26 O          18.4636   72.1953   -4.4866 O.co2   1  UNL1       -0.4371
     27 O          19.6200   70.4448   -6.0593 O.2     1  UNL1       -0.5170
     28 O          19.9084   73.0232   -6.4279 O.3     1  UNL1       -0.2858
     29 O          18.7887   72.3141   -8.3926 O.3     1  UNL1       -0.3258
     30 O          15.5752   72.4142   -5.8014 O.3     1  UNL1       -0.3794
     31 O          16.6303   69.8830   -6.6547 O.3     1  UNL1       -0.3794
     32 O          17.6253   74.4513   -5.6386 O.3     1  UNL1       -0.3775
     33 C          16.9391   72.2065   -6.1782 C.3     1  UNL1        0.1715
     34 C          16.9785   71.1252   -7.2599 C.3     1  UNL1        0.1694
     35 C          17.5159   73.5181   -6.7079 C.3     1  UNL1        0.1967
     36 C          18.3690   71.0351   -7.9029 C.3     1  UNL1        0.1761
     37 C          18.8786   73.3089   -7.3708 C.3     1  UNL1        0.2704
     38 H          15.2032   71.5853   -5.4637 H       1  UNL1        0.2105
     39 H          15.7505   69.9535   -6.2520 H       1  UNL1        0.2105
     40 H          16.7561   74.5753   -5.2275 H       1  UNL1        0.2106
     41 O          18.7001   70.8105  -10.2584 O.3     1  UNL1       -0.3794
     42 C          18.3892   70.0745   -9.0898 C.3     1  UNL1        0.1693
     43 H          18.7168   70.2119  -11.0220 H       1  UNL1        0.2105
@<TRIPOS>UNITY_ATOM_ATTR
2 1
charge -1
26 1
charge -1
@<TRIPOS>BOND
     1    25    28    1
     2    25    24    1
     3    25    26    1
     4    25    27    2
     5     1     4    1
     6     1    24    1
     7     1     2    1
     8     1     3    2
     9     6    11    1
    10     6    12    1
    11    29    36    1
    12    29    37    1
    13     7     9    1
    14     7    13    1
    15     8    10    1
    16     8    14    1
    17    28    37    1
    18     4     5    1
    19    30    33    1
    20    30    38    1
    21    31    34    1
    22    31    39    1
    23    32    35    1
    24    32    40    1
    25    41    42    1
    26    41    43    1
    27    15    19    2
    28    16    22    2
    29    17    12    1
    30    17    19   ar
    31    17    20   ar
    32    18    19   ar
    33    18    22   ar
    34    18    23    1
    35     9    10    1
    36     9    11    1
    37    10    12    1
    38    11     5    1
    39    33    34    1
    40    33    35    1
    41    34    36    1
    42    35    37    1
    43    36    42    1
    44    20    21   ar
    45    21    22   ar
@<TRIPOS>MOLECULE
*****
 43 45 0 0 0
SMALL
GASTEIGER

@<TRIPOS>ATOM
      1 P          22.3390   73.4106   -5.3028 P.3     1  UNL1        0.2189
      2 O          22.7951   74.7966   -6.0015 O.co2   1  UNL1       -0.4371
      3 O          23.4514   72.6178   -4.6818 O.2     1  UNL1       -0.5170
      4 O          21.4956   72.6529   -6.4571 O.3     1  UNL1       -0.3112
      5 C          20.8465   73.4353   -7.4441 C.3     1  UNL1        0.1811
      6 O          20.0318   71.2128   -7.8567 O.3     1  UNL1       -0.3308
      7 O          18.5491   72.3895  -10.1821 O.3     1  UNL1       -0.3794
      8 O          16.6012   72.1661   -8.2867 O.3     1  UNL1       -0.3779
      9 C          18.8162   72.9583   -8.9013 C.3     1  UNL1        0.1713
     10 C          17.9358   72.3187   -7.8480 C.3     1  UNL1        0.1895
     11 C          20.2065   72.5092   -8.4692 C.3     1  UNL1        0.1764
     12 C          18.6323   70.9878   -7.6209 C.3     1  UNL1        0.2383
     13 H          17.6664   72.6626  -10.4793 H       1  UNL1        0.2105
     14 H          16.2015   73.0402   -8.4169 H       1  UNL1        0.2106
     15 O          16.2591   69.8019   -6.6517 O.2     1  UNL1       -0.2464
     16 O          18.0757   69.1532   -2.4659 O.2     1  UNL1       -0.2670
     17 N          18.4576   70.4997   -6.2820 N.ar    1  UNL1       -0.2551
     18 N          17.1656   69.4797   -4.5683 N.ar    1  UNL1       -0.2743
     19 C          17.2256   69.9222   -5.8960 C.ar    1  UNL1        0.3323
     20 C          19.5010   70.5958   -5.3677 C.ar    1  UNL1        0.0869
     21 C          19.4273   70.1702   -4.1049 C.ar    1  UNL1        0.0795
     22 C          18.1748   69.5543   -3.6214 C.ar    1  UNL1        0.2626
     23 H          16.3168   69.0742   -4.2768 H       1  UNL1        0.1734
     24 O          21.1922   73.8857   -4.2674 O.3     1  UNL1       -0.2703
     25 P          21.2922   74.4265   -2.7474 P.3     1  UNL1        0.2208
     26 O          19.8257   75.0552   -2.4799 O.co2   1  UNL1       -0.4371
     27 O          22.4276   75.3788   -2.5065 O.2     1  UNL1       -0.5170
     28 O          21.3350   73.0918   -1.8409 O.3     1  UNL1       -0.2858
     29 O          23.0132   73.3819   -0.1929 O.3     1  UNL1       -0.3258
     30 O          21.9287   69.4875    0.6485 O.3     1  UNL1       -0.3794
     31 O          21.1637   71.5923    2.4463 O.3     1  UNL1       -0.3794
     32 O          22.0514   70.3908   -2.0990 O.3     1  UNL1       -0.3775
     33 C          21.7120   70.8416    0.2426 C.3     1  UNL1        0.1715
     34 C          22.1150   71.7591    1.3987 C.3     1  UNL1        0.1694
     35 C          22.5583   71.1332   -0.9952 C.3     1  UNL1        0.1967
     36 C          22.1646   73.2260    0.9504 C.3     1  UNL1        0.1761
     37 C          22.5798   72.6266   -1.3258 C.3     1  UNL1        0.2704
     38 H          21.3938   69.2957    1.4337 H       1  UNL1        0.2105
     39 H          21.1419   70.6618    2.7198 H       1  UNL1        0.2105
     40 H          22.0431   69.4470   -1.8773 H       1  UNL1        0.2106
     41 O          23.8193   74.8537    1.5173 O.3     1  UNL1       -0.3794
     42 C          22.7157   74.1396    2.0430 C.3     1  UNL1        0.1693
     43 H          24.1802   75.4395    2.2016 H       1  UNL1        0.2105
@<TRIPOS>UNITY_ATOM_ATTR
2 1
charge -1
26 1
charge -1
@<TRIPOS>BOND
     1    25    28    1
     2    25    24    1
     3    25    26    1
     4    25    27    2
     5     1     4    1
     6     1    24    1
     7     1     2    1
     8     1     3    2
     9     6    11    1
    10     6    12    1
    11    29    36    1
    12    29    37    1
    13     7     9    1
    14     7    13    1
    15     8    10    1
    16     8    14    1
    17    28    37    1
    18     4     5    1
    19    30    33    1
    20    30    38    1
    21    31    34    1
    22    31    39    1
    23    32    35    1
    24    32    40    1
    25    41    42    1
    26    41    43    1
    27    15    19    2
    28    16    22    2
    29    17    12    1
    30    17    19   ar
    31    17    20   ar
    32    18    19   ar
    33    18    22   ar
    34    18    23    1
    35     9    10    1
    36     9    11    1
    37    10    12    1
    38    11     5    1
    39    33    34    1
    40    33    35    1
    41    34    36    1
    42    35    37    1
    43    36    42    1
    44    20    21   ar
    45    21    22   ar
@<TRIPOS>MOLECULE
*****
 43 45 0 0 0
SMALL
GASTEIGER

@<TRIPOS>ATOM
      1 P          17.8228   72.9270   -2.1507 P.3     1  UNL1        0.2189
      2 O          18.2432   74.0587   -3.2277 O.co2   1  UNL1       -0.4371
      3 O          16.5172   73.1704   -1.4524 O.2     1  UNL1       -0.5170
      4 O          19.1200   72.8025   -1.1917 O.3     1  UNL1       -0.3112
      5 C          19.7387   73.9921   -0.7335 C.3     1  UNL1        0.1811
      6 O          22.0066   74.4066   -0.0563 O.3     1  UNL1       -0.3308
      7 O          22.8187   72.8024   -2.4559 O.3     1  UNL1       -0.3794
      8 O          23.1110   71.0136   -0.4183 O.3     1  UNL1       -0.3779
      9 C          21.7052   72.6194   -1.5830 C.3     1  UNL1        0.1713
     10 C          22.1646   72.0504   -0.2568 C.3     1  UNL1        0.1895
     11 C          21.1948   73.9968   -1.1785 C.3     1  UNL1        0.1764
     12 C          22.7497   73.2751    0.4257 C.3     1  UNL1        0.2383
     13 H          23.1618   71.9362   -2.7280 H       1  UNL1        0.2105
     14 H          22.6907   70.2574   -0.8568 H       1  UNL1        0.2106
     15 O          21.1632   71.3977    1.8173 O.2     1  UNL1       -0.2464
     16 O          22.3711   73.1369    5.9109 O.2     1  UNL1       -0.2670
     17 N          22.6315   73.2143    1.8553 N.ar    1  UNL1       -0.2551
     18 N          21.7661   72.2651    3.8544 N.ar    1  UNL1       -0.2743
     19 C          21.8074   72.2334    2.4547 C.ar    1  UNL1        0.3323
     20 C          23.3282   74.1203    2.6475 C.ar    1  UNL1        0.0869
     21 C          23.2770   74.1381    3.9810 C.ar    1  UNL1        0.0795
     22 C          22.4392   73.1464    4.6857 C.ar    1  UNL1        0.2626
     23 H          21.1981   71.5913    4.2940 H       1  UNL1        0.1734
     24 O          17.8787   71.5630   -3.0163 O.3     1  UNL1       -0.2703
     25 P          17.1387   71.1477   -4.3921 P.3     1  UNL1        0.2208
     26 O          15.8735   72.1544   -4.4514 O.co2   1  UNL1       -0.4371
     27 O          16.7775   69.6933   -4.4818 O.2     1  UNL1       -0.5170
     28 O          18.1261   71.6649   -5.5593 O.3     1  UNL1       -0.2858
     29 O          19.4974   70.2778   -6.9055 O.3     1  UNL1       -0.3258
     30 O          21.7927   73.7102   -6.9424 O.3     1  UNL1       -0.3794
     31 O          20.3590   72.9377   -9.3079 O.3     1  UNL1       -0.3794
     32 O          20.4107   72.9233   -4.5237 O.3     1  UNL1       -0.3775
     33 C          20.5783   72.9550   -6.9263 C.3     1  UNL1        0.1715
     34 C          20.5393   72.0826   -8.1825 C.3     1  UNL1        0.1694
     35 C          20.5461   72.0884   -5.6687 C.3     1  UNL1        0.1967
     36 C          19.4042   71.0526   -8.1067 C.3     1  UNL1        0.1761
     37 C          19.4096   71.0656   -5.7165 C.3     1  UNL1        0.2704
     38 H          21.8192   74.2629   -7.7382 H       1  UNL1        0.2105
     39 H          21.0820   73.5836   -9.3440 H       1  UNL1        0.2105
     40 H          21.1362   73.5661   -4.5047 H       1  UNL1        0.2106
     41 O          18.7559   70.6462  -10.3702 O.3     1  UNL1       -0.3794
     42 C          19.4443   70.0703   -9.2753 C.3     1  UNL1        0.1693
     43 H          18.7735   70.0322  -11.1215 H       1  UNL1        0.2105
@<TRIPOS>UNITY_ATOM_ATTR
2 1
charge -1
26 1
charge -1
@<TRIPOS>BOND
     1    25    28    1
     2    25    24    1
     3    25    26    1
     4    25    27    2
     5     1     4    1
     6     1    24    1
     7     1     2    1
     8     1     3    2
     9     6    11    1
    10     6    12    1
    11    29    36    1
    12    29    37    1
    13     7     9    1
    14     7    13    1
    15     8    10    1
    16     8    14    1
    17    28    37    1
    18     4     5    1
    19    30    33    1
    20    30    38    1
    21    31    34    1
    22    31    39    1
    23    32    35    1
    24    32    40    1
    25    41    42    1
    26    41    43    1
    27    15    19    2
    28    16    22    2
    29    17    12    1
    30    17    19   ar
    31    17    20   ar
    32    18    19   ar
    33    18    22   ar
    34    18    23    1
    35     9    10    1
    36     9    11    1
    37    10    12    1
    38    11     5    1
    39    33    34    1
    40    33    35    1
    41    34    36    1
    42    35    37    1
    43    36    42    1
    44    20    21   ar
    45    21    22   ar
@<TRIPOS>MOLECULE
*****
 43 45 0 0 0
SMALL
GASTEIGER

@<TRIPOS>ATOM
      1 P          21.7815   74.7699   -7.2685 P.3     1  UNL1        0.2189
      2 O          20.8318   76.0263   -7.6387 O.co2   1  UNL1       -0.4371
      3 O          23.2142   75.1186   -6.9906 O.2     1  UNL1       -0.5170
      4 O          21.5346   73.7262   -8.4800 O.3     1  UNL1       -0.3112
      5 C          21.3023   72.3649   -8.1628 C.3     1  UNL1        0.1811
      6 O          19.6009   70.6786   -8.3518 O.3     1  UNL1       -0.3308
      7 O          18.2375   72.5350  -10.2716 O.3     1  UNL1       -0.3794
      8 O          16.8310   72.9242   -7.9679 O.3     1  UNL1       -0.3779
      9 C          18.9837   72.8424   -9.0951 C.3     1  UNL1        0.1713
     10 C          18.1767   72.5074   -7.8581 C.3     1  UNL1        0.1895
     11 C          20.1380   71.8526   -8.9996 C.3     1  UNL1        0.1764
     12 C          18.3170   70.9961   -7.7902 C.3     1  UNL1        0.2383
     13 H          17.4948   73.1544  -10.3542 H       1  UNL1        0.2105
     14 H          16.7945   73.8926   -8.0077 H       1  UNL1        0.2106
     15 O          16.1326   69.5747   -6.7012 O.2     1  UNL1       -0.2464
     16 O          18.2144   69.1460   -2.6118 O.2     1  UNL1       -0.2670
     17 N          18.2616   70.5009   -6.4437 N.ar    1  UNL1       -0.2551
     18 N          17.1710   69.3622   -4.6660 N.ar    1  UNL1       -0.2743
     19 C          17.1177   69.8002   -5.9954 C.ar    1  UNL1        0.3323
     20 C          19.3337   70.7114   -5.5833 C.ar    1  UNL1        0.0869
     21 C          19.3683   70.2884   -4.3180 C.ar    1  UNL1        0.0795
     22 C          18.2130   69.5479   -3.7712 C.ar    1  UNL1        0.2626
     23 H          16.3851   68.8721   -4.3316 H       1  UNL1        0.1734
     24 O          21.0048   74.0796   -6.0303 O.3     1  UNL1       -0.2703
     25 P          20.4360   74.7051   -4.6525 P.3     1  UNL1        0.2208
     26 O          18.8314   74.6204   -4.8412 O.co2   1  UNL1       -0.4371
     27 O          20.9513   76.0806   -4.3423 O.2     1  UNL1       -0.5170
     28 O          20.7736   73.5954   -3.5301 O.3     1  UNL1       -0.2858
     29 O          21.8258   73.5062   -1.4084 O.3     1  UNL1       -0.3258
     30 O          23.7896   70.3759   -3.2510 O.3     1  UNL1       -0.3794
     31 O          21.8314   69.8246   -1.2238 O.3     1  UNL1       -0.3794
     32 O          23.1611   72.7698   -4.7521 O.3     1  UNL1       -0.3775
     33 C          22.6778   71.2288   -2.9652 C.3     1  UNL1        0.1715
     34 C          22.3636   71.1229   -1.4716 C.3     1  UNL1        0.1694
     35 C          23.0418   72.6649   -3.3375 C.3     1  UNL1        0.1967
     36 C          21.3626   72.2024   -1.0381 C.3     1  UNL1        0.1761
     37 C          22.0059   73.6631   -2.8173 C.3     1  UNL1        0.2704
     38 H          23.5649   69.4624   -3.0173 H       1  UNL1        0.2105
     39 H          22.4730   69.1522   -1.5023 H       1  UNL1        0.2105
     40 H          23.8199   72.1331   -5.0690 H       1  UNL1        0.2106
     41 O          21.4544   70.9277    0.9807 O.3     1  UNL1       -0.3794
     42 C          21.1553   72.2157    0.4748 C.3     1  UNL1        0.1693
     43 H          21.3271   70.9213    1.9427 H       1  UNL1        0.2105
@<TRIPOS>UNITY_ATOM_ATTR
2 1
charge -1
26 1
charge -1
@<TRIPOS>BOND
     1    25    28    1
     2    25    24    1
     3    25    26    1
     4    25    27    2
     5     1     4    1
     6     1    24    1
     7     1     2    1
     8     1     3    2
     9     6    11    1
    10     6    12    1
    11    29    36    1
    12    29    37    1
    13     7     9    1
    14     7    13    1
    15     8    10    1
    16     8    14    1
    17    28    37    1
    18     4     5    1
    19    30    33    1
    20    30    38    1
    21    31    34    1
    22    31    39    1
    23    32    35    1
    24    32    40    1
    25    41    42    1
    26    41    43    1
    27    15    19    2
    28    16    22    2
    29    17    12    1
    30    17    19   ar
    31    17    20   ar
    32    18    19   ar
    33    18    22   ar
    34    18    23    1
    35     9    10    1
    36     9    11    1
    37    10    12    1
    38    11     5    1
    39    33    34    1
    40    33    35    1
    41    34    36    1
    42    35    37    1
    43    36    42    1
    44    20    21   ar
    45    21    22   ar
@<TRIPOS>MOLECULE
*****
 43 45 0 0 0
SMALL
GASTEIGER

@<TRIPOS>ATOM
      1 P          22.6955   73.0266   -3.2017 P.3     1  UNL1        0.2189
      2 O          21.7527   74.2356   -3.7182 O.co2   1  UNL1       -0.4371
      3 O          23.7155   72.5502   -4.1937 O.2     1  UNL1       -0.5170
      4 O          21.6459   71.9103   -2.6821 O.3     1  UNL1       -0.3112
      5 C          20.8453   71.2378   -3.6385 C.3     1  UNL1        0.1811
      6 O          18.9115   72.1650   -4.7222 O.3     1  UNL1       -0.3308
      7 O          17.3270   71.0543   -2.4317 O.3     1  UNL1       -0.3794
      8 O          16.8825   69.2248   -4.4044 O.3     1  UNL1       -0.3779
      9 C          18.4714   70.5085   -3.0858 C.3     1  UNL1        0.1713
     10 C          18.0886   69.9599   -4.4445 C.3     1  UNL1        0.1895
     11 C          19.3945   71.6623   -3.4571 C.3     1  UNL1        0.1764
     12 C          17.9737   71.2270   -5.2749 C.3     1  UNL1        0.2383
     13 H          16.7228   70.3361   -2.1846 H       1  UNL1        0.2105
     14 H          17.0067   68.4286   -3.8646 H       1  UNL1        0.2106
     15 O          16.1099   70.4116   -7.2343 O.2     1  UNL1       -0.2464
     16 O          19.3151   70.4123  -10.5461 O.2     1  UNL1       -0.2670
     17 N          18.2938   71.0069   -6.6571 N.ar    1  UNL1       -0.2551
     18 N          17.7074   70.4128   -8.8818 N.ar    1  UNL1       -0.2743
     19 C          17.2844   70.5976   -7.5593 C.ar    1  UNL1        0.3323
     20 C          19.5964   71.1973   -7.1055 C.ar    1  UNL1        0.0869
     21 C          19.9837   71.0155   -8.3697 C.ar    1  UNL1        0.0795
     22 C          18.9903   70.5879   -9.3759 C.ar    1  UNL1        0.2626
     23 H          17.0214   70.1272   -9.5280 H       1  UNL1        0.1734
     24 O          23.3150   73.6103   -1.8275 O.3     1  UNL1       -0.2703
     25 P          24.1426   74.9662   -1.5279 P.3     1  UNL1        0.2208
     26 O          24.5331   74.8246    0.0358 O.co2   1  UNL1       -0.4371
     27 O          23.4028   76.2270   -1.8698 O.2     1  UNL1       -0.5170
     28 O          25.5384   74.7753   -2.3154 O.3     1  UNL1       -0.2858
     29 O          27.5305   76.0100   -1.9637 O.3     1  UNL1       -0.3258
     30 O          27.9627   75.1928   -5.9881 O.3     1  UNL1       -0.3794
     31 O          29.6196   73.8302   -4.0787 O.3     1  UNL1       -0.3794
     32 O          25.3481   75.8172   -4.9142 O.3     1  UNL1       -0.3775
     33 C          27.5688   74.9261   -4.6394 C.3     1  UNL1        0.1715
     34 C          28.8190   74.9645   -3.7582 C.3     1  UNL1        0.1694
     35 C          26.5641   75.9868   -4.1937 C.3     1  UNL1        0.1967
     36 C          28.4477   74.9530   -2.2692 C.3     1  UNL1        0.1761
     37 C          26.3021   75.9195   -2.6881 C.3     1  UNL1        0.2704
     38 H          28.6003   74.5226   -6.2774 H       1  UNL1        0.2105
     39 H          29.8466   73.8492   -5.0217 H       1  UNL1        0.2105
     40 H          25.5273   75.8621   -5.8659 H       1  UNL1        0.2106
     41 O          29.2491   75.0958   -0.0228 O.3     1  UNL1       -0.3794
     42 C          29.6690   75.1495   -1.3738 C.3     1  UNL1        0.1693
     43 H          30.0161   75.2191    0.5587 H       1  UNL1        0.2105
@<TRIPOS>UNITY_ATOM_ATTR
2 1
charge -1
26 1
charge -1
@<TRIPOS>BOND
     1    25    28    1
     2    25    24    1
     3    25    26    1
     4    25    27    2
     5     1     4    1
     6     1    24    1
     7     1     2    1
     8     1     3    2
     9     6    11    1
    10     6    12    1
    11    29    36    1
    12    29    37    1
    13     7     9    1
    14     7    13    1
    15     8    10    1
    16     8    14    1
    17    28    37    1
    18     4     5    1
    19    30    33    1
    20    30    38    1
    21    31    34    1
    22    31    39    1
    23    32    35    1
    24    32    40    1
    25    41    42    1
    26    41    43    1
    27    15    19    2
    28    16    22    2
    29    17    12    1
    30    17    19   ar
    31    17    20   ar
    32    18    19   ar
    33    18    22   ar
    34    18    23    1
    35     9    10    1
    36     9    11    1
    37    10    12    1
    38    11     5    1
    39    33    34    1
    40    33    35    1
    41    34    36    1
    42    35    37    1
    43    36    42    1
    44    20    21   ar
    45    21    22   ar
@<TRIPOS>MOLECULE
*****
 43 45 0 0 0
SMALL
GASTEIGER

@<TRIPOS>ATOM
      1 P          19.2214   74.1619   -4.1789 P.3     1  UNL1        0.2189
      2 O          19.3062   74.4781   -2.5946 O.co2   1  UNL1       -0.4371
      3 O          19.0175   75.3630   -5.0549 O.2     1  UNL1       -0.5170
      4 O          18.0865   73.0137   -4.2856 O.3     1  UNL1       -0.3112
      5 C          17.4149   72.6148   -3.1033 C.3     1  UNL1        0.1811
      6 O          16.8763   70.7135   -4.4702 O.3     1  UNL1       -0.3308
      7 O          18.1187   69.0447   -2.3110 O.3     1  UNL1       -0.3794
      8 O          20.0926   69.1517   -4.1895 O.3     1  UNL1       -0.3779
      9 C          18.4992   70.3353   -2.7854 C.3     1  UNL1        0.1713
     10 C          19.1706   70.2213   -4.1381 C.3     1  UNL1        0.1895
     11 C          17.2283   71.1039   -3.1249 C.3     1  UNL1        0.1764
     12 C          17.9831   70.0145   -5.0629 C.3     1  UNL1        0.2383
     13 H          18.9139   68.5352   -2.0874 H       1  UNL1        0.2105
     14 H          20.8293   69.3302   -3.5844 H       1  UNL1        0.2106
     15 O          16.0338   70.1264   -7.1038 O.2     1  UNL1       -0.2464
     16 O          18.9885   72.0491  -10.0727 O.2     1  UNL1       -0.2670
     17 N          18.2156   70.5397   -6.3787 N.ar    1  UNL1       -0.2551
     18 N          17.5065   71.0838   -8.5804 N.ar    1  UNL1       -0.2743
     19 C          17.1694   70.5491   -7.3304 C.ar    1  UNL1        0.3323
     20 C          19.4696   71.0386   -6.7141 C.ar    1  UNL1        0.0869
     21 C          19.7753   71.5440   -7.9109 C.ar    1  UNL1        0.0795
     22 C          18.7386   71.5906   -8.9622 C.ar    1  UNL1        0.2626
     23 H          16.7936   71.1003   -9.2595 H       1  UNL1        0.1734
     24 O          20.5893   73.3481   -4.4609 O.3     1  UNL1       -0.2703
     25 P          22.0499   73.4576   -3.7770 P.3     1  UNL1        0.2208
     26 O          22.2464   75.0508   -3.5750 O.co2   1  UNL1       -0.4371
     27 O          23.1463   72.7925   -4.5577 O.2     1  UNL1       -0.5170
     28 O          21.8463   72.8794   -2.2840 O.3     1  UNL1       -0.2858
     29 O          23.3788   73.0948   -0.4890 O.3     1  UNL1       -0.3258
     30 O          21.6405   69.4977    0.5553 O.3     1  UNL1       -0.3794
     31 O          21.0294   71.8604    2.0694 O.3     1  UNL1       -0.3794
     32 O          22.1680   70.0922   -2.2282 O.3     1  UNL1       -0.3775
     33 C          21.6721   70.8209    0.0134 C.3     1  UNL1        0.1715
     34 C          22.0934   71.7843    1.1247 C.3     1  UNL1        0.1694
     35 C          22.6703   70.8633   -1.1421 C.3     1  UNL1        0.1967
     36 C          22.4079   73.1766    0.5610 C.3     1  UNL1        0.1761
     37 C          22.9497   72.2976   -1.5946 C.3     1  UNL1        0.2704
     38 H          21.0082   69.4638    1.2892 H       1  UNL1        0.2105
     39 H          20.8404   70.9747    2.4173 H       1  UNL1        0.2105
     40 H          21.9955   69.1864   -1.9289 H       1  UNL1        0.2106
     41 O          23.2152   75.3745    1.0368 O.3     1  UNL1       -0.3794
     42 C          22.9807   74.1089    1.6263 C.3     1  UNL1        0.1693
     43 H          23.5795   75.9785    1.7033 H       1  UNL1        0.2105
@<TRIPOS>UNITY_ATOM_ATTR
2 1
charge -1
26 1
charge -1
@<TRIPOS>BOND
     1    25    28    1
     2    25    24    1
     3    25    26    1
     4    25    27    2
     5     1     4    1
     6     1    24    1
     7     1     2    1
     8     1     3    2
     9     6    11    1
    10     6    12    1
    11    29    36    1
    12    29    37    1
    13     7     9    1
    14     7    13    1
    15     8    10    1
    16     8    14    1
    17    28    37    1
    18     4     5    1
    19    30    33    1
    20    30    38    1
    21    31    34    1
    22    31    39    1
    23    32    35    1
    24    32    40    1
    25    41    42    1
    26    41    43    1
    27    15    19    2
    28    16    22    2
    29    17    12    1
    30    17    19   ar
    31    17    20   ar
    32    18    19   ar
    33    18    22   ar
    34    18    23    1
    35     9    10    1
    36     9    11    1
    37    10    12    1
    38    11     5    1
    39    33    34    1
    40    33    35    1
    41    34    36    1
    42    35    37    1
    43    36    42    1
    44    20    21   ar
    45    21    22   ar
@<TRIPOS>MOLECULE
*****
 43 45 0 0 0
SMALL
GASTEIGER

@<TRIPOS>ATOM
      1 P          19.5930   69.4146   -3.6550 P.3     1  UNL1        0.2189
      2 O          19.6857   69.8650   -5.2061 O.co2   1  UNL1       -0.4371
      3 O          18.9937   68.0587   -3.4234 O.2     1  UNL1       -0.5170
      4 O          18.8346   70.6501   -2.9364 O.3     1  UNL1       -0.3112
      5 C          17.5355   70.9976   -3.3829 C.3     1  UNL1        0.1811
      6 O          18.3081   72.7741   -4.8045 O.3     1  UNL1       -0.3308
      7 O          16.0422   74.3948   -3.6957 O.3     1  UNL1       -0.3794
      8 O          15.0775   73.6058   -6.1213 O.3     1  UNL1       -0.3779
      9 C          16.0921   73.0011   -3.9962 C.3     1  UNL1        0.1713
     10 C          16.0408   72.7839   -5.4941 C.3     1  UNL1        0.1895
     11 C          17.4870   72.4959   -3.6492 C.3     1  UNL1        0.1764
     12 C          17.4612   73.1255   -5.9109 C.3     1  UNL1        0.2383
     13 H          15.1605   74.7400   -3.9088 H       1  UNL1        0.2105
     14 H          14.1906   73.3494   -5.8239 H       1  UNL1        0.2106
     15 O          16.3232   70.6825   -6.7562 O.2     1  UNL1       -0.2464
     16 O          19.1590   70.4042  -10.3787 O.2     1  UNL1       -0.2670
     17 N          17.8826   72.3931   -7.0717 N.ar    1  UNL1       -0.2551
     18 N          17.7360   70.5460   -8.5593 N.ar    1  UNL1       -0.2743
     19 C          17.2459   71.1758   -7.4082 C.ar    1  UNL1        0.3323
     20 C          18.9160   72.8830   -7.8628 C.ar    1  UNL1        0.0869
     21 C          19.3726   72.2697   -8.9567 C.ar    1  UNL1        0.0795
     22 C          18.7615   70.9924   -9.3777 C.ar    1  UNL1        0.2626
     23 H          17.3079   69.6962   -8.8130 H       1  UNL1        0.1734
     24 O          21.1166   69.5738   -3.1387 O.3     1  UNL1       -0.2703
     25 P          22.0414   70.8859   -2.9488 P.3     1  UNL1        0.2208
     26 O          21.3757   71.9587   -3.9605 O.co2   1  UNL1       -0.4371
     27 O          23.5055   70.6451   -3.1774 O.2     1  UNL1       -0.5170
     28 O          21.6757   71.4337   -1.4754 O.3     1  UNL1       -0.2858
     29 O          23.2034   72.9260   -0.4478 O.3     1  UNL1       -0.3258
     30 O          21.0920   71.7372    2.8958 O.3     1  UNL1       -0.3794
     31 O          20.7124   74.3832    1.8459 O.3     1  UNL1       -0.3794
     32 O          21.7072   69.8174    0.8184 O.3     1  UNL1       -0.3775
     33 C          21.2658   72.0794    1.5181 C.3     1  UNL1        0.1715
     34 C          21.7727   73.5210    1.4424 C.3     1  UNL1        0.1694
     35 C          22.2751   71.1208    0.8891 C.3     1  UNL1        0.1967
     36 C          22.2353   73.8716    0.0218 C.3     1  UNL1        0.1761
     37 C          22.7059   71.5876   -0.5025 C.3     1  UNL1        0.2704
     38 H          20.4519   72.3418    3.3011 H       1  UNL1        0.2105
     39 H          20.4293   74.1510    2.7442 H       1  UNL1        0.2105
     40 H          21.4388   69.5332    1.7056 H       1  UNL1        0.2106
     41 O          22.8388   75.7094   -1.3808 O.3     1  UNL1       -0.3794
     42 C          22.8901   75.2497   -0.0427 C.3     1  UNL1        0.1693
     43 H          23.2517   76.5858   -1.4369 H       1  UNL1        0.2105
@<TRIPOS>UNITY_ATOM_ATTR
2 1
charge -1
26 1
charge -1
@<TRIPOS>BOND
     1    25    28    1
     2    25    24    1
     3    25    26    1
     4    25    27    2
     5     1     4    1
     6     1    24    1
     7     1     2    1
     8     1     3    2
     9     6    11    1
    10     6    12    1
    11    29    36    1
    12    29    37    1
    13     7     9    1
    14     7    13    1
    15     8    10    1
    16     8    14    1
    17    28    37    1
    18     4     5    1
    19    30    33    1
    20    30    38    1
    21    31    34    1
    22    31    39    1
    23    32    35    1
    24    32    40    1
    25    41    42    1
    26    41    43    1
    27    15    19    2
    28    16    22    2
    29    17    12    1
    30    17    19   ar
    31    17    20   ar
    32    18    19   ar
    33    18    22   ar
    34    18    23    1
    35     9    10    1
    36     9    11    1
    37    10    12    1
    38    11     5    1
    39    33    34    1
    40    33    35    1
    41    34    36    1
    42    35    37    1
    43    36    42    1
    44    20    21   ar
    45    21    22   ar
@<TRIPOS>MOLECULE
*****
 43 45 0 0 0
SMALL
GASTEIGER

@<TRIPOS>ATOM
      1 P          23.1475   72.9298   -3.4296 P.3     1  UNL1        0.2189
      2 O          23.1849   71.3229   -3.6136 O.co2   1  UNL1       -0.4371
      3 O          24.3269   73.6607   -4.0007 O.2     1  UNL1       -0.5170
      4 O          22.8949   73.1335   -1.8445 O.3     1  UNL1       -0.3112
      5 C          22.6081   71.9933   -1.0535 C.3     1  UNL1        0.1811
      6 O          21.3218   72.0321    0.9757 O.3     1  UNL1       -0.3308
      7 O          19.1670   73.3546   -0.6363 O.3     1  UNL1       -0.3794
      8 O          20.2982   75.4568    0.6818 O.3     1  UNL1       -0.3779
      9 C          20.5830   73.4995   -0.7321 C.3     1  UNL1        0.1713
     10 C          21.1063   74.3267    0.4235 C.3     1  UNL1        0.1895
     11 C          21.2133   72.1393   -0.4607 C.3     1  UNL1        0.1764
     12 C          21.0885   73.3224    1.5634 C.3     1  UNL1        0.2383
     13 H          18.7423   74.2106   -0.8062 H       1  UNL1        0.2105
     14 H          20.3429   76.0655   -0.0720 H       1  UNL1        0.2106
     15 O          23.4842   74.7206    1.0308 O.2     1  UNL1       -0.2464
     16 O          24.9356   74.2591    5.3807 O.2     1  UNL1       -0.2670
     17 N          22.1099   73.5824    2.5383 N.ar    1  UNL1       -0.2551
     18 N          24.2048   74.4898    3.1972 N.ar    1  UNL1       -0.2743
     19 C          23.2755   74.2926    2.1678 C.ar    1  UNL1        0.3323
     20 C          21.9502   73.1351    3.8454 C.ar    1  UNL1        0.0869
     21 C          22.8464   73.3302    4.8149 C.ar    1  UNL1        0.0795
     22 C          24.0921   74.0636    4.5111 C.ar    1  UNL1        0.2626
     23 H          25.0249   74.9819    2.9623 H       1  UNL1        0.1734
     24 O          21.7246   73.3370   -4.0795 O.3     1  UNL1       -0.2703
     25 P          21.2622   73.4726   -5.6225 P.3     1  UNL1        0.2208
     26 O          22.3412   72.5637   -6.4144 O.co2   1  UNL1       -0.4371
     27 O          21.1654   74.8879   -6.1138 O.2     1  UNL1       -0.5170
     28 O          19.8835   72.6382   -5.7107 O.3     1  UNL1       -0.2858
     29 O          20.0825   70.3644   -5.0728 O.3     1  UNL1       -0.3258
     30 O          16.3583   70.2272   -6.8511 O.3     1  UNL1       -0.3794
     31 O          16.5727   70.0406   -3.9933 O.3     1  UNL1       -0.3794
     32 O          18.4454   71.8742   -7.9961 O.3     1  UNL1       -0.3775
     33 C          17.4191   70.8142   -6.0924 C.3     1  UNL1        0.1715
     34 C          17.6861   69.9266   -4.8752 C.3     1  UNL1        0.1694
     35 C          18.6655   70.9124   -6.9700 C.3     1  UNL1        0.1967
     36 C          18.9789   70.3415   -4.1599 C.3     1  UNL1        0.1761
     37 C          19.9041   71.2833   -6.1524 C.3     1  UNL1        0.2704
     38 H          15.5638   70.1624   -6.2998 H       1  UNL1        0.2105
     39 H          15.7628   69.7762   -4.4573 H       1  UNL1        0.2105
     40 H          17.6589   71.6280   -8.5066 H       1  UNL1        0.2106
     41 O          19.7639   68.1507   -3.6184 O.3     1  UNL1       -0.3794
     42 C          19.3480   69.3733   -3.0382 C.3     1  UNL1        0.1693
     43 H          20.0022   67.5248   -2.9162 H       1  UNL1        0.2105
@<TRIPOS>UNITY_ATOM_ATTR
2 1
charge -1
26 1
charge -1
@<TRIPOS>BOND
     1    25    28    1
     2    25    24    1
     3    25    26    1
     4    25    27    2
     5     1     4    1
     6     1    24    1
     7     1     2    1
     8     1     3    2
     9     6    11    1
    10     6    12    1
    11    29    36    1
    12    29    37    1
    13     7     9    1
    14     7    13    1
    15     8    10    1
    16     8    14    1
    17    28    37    1
    18     4     5    1
    19    30    33    1
    20    30    38    1
    21    31    34    1
    22    31    39    1
    23    32    35    1
    24    32    40    1
    25    41    42    1
    26    41    43    1
    27    15    19    2
    28    16    22    2
    29    17    12    1
    30    17    19   ar
    31    17    20   ar
    32    18    19   ar
    33    18    22   ar
    34    18    23    1
    35     9    10    1
    36     9    11    1
    37    10    12    1
    38    11     5    1
    39    33    34    1
    40    33    35    1
    41    34    36    1
    42    35    37    1
    43    36    42    1
    44    20    21   ar
    45    21    22   ar
@<TRIPOS>MOLECULE
*****
 43 45 0 0 0
SMALL
GASTEIGER

@<TRIPOS>ATOM
      1 P          21.6246   73.2750   -5.8793 P.3     1  UNL1        0.2189
      2 O          21.1042   74.7138   -6.4050 O.co2   1  UNL1       -0.4371
      3 O          22.6983   72.6447   -6.7168 O.2     1  UNL1       -0.5170
      4 O          20.2680   72.4099   -5.7086 O.3     1  UNL1       -0.3112
      5 C          20.3551   71.1255   -5.1167 C.3     1  UNL1        0.1811
      6 O          18.2634   71.9807   -4.2999 O.3     1  UNL1       -0.3308
      7 O          18.0671   69.4509   -2.7023 O.3     1  UNL1       -0.3794
      8 O          16.4157   68.9500   -4.8138 O.3     1  UNL1       -0.3779
      9 C          18.6000   69.6529   -4.0101 C.3     1  UNL1        0.1713
     10 C          17.4799   69.8591   -5.0083 C.3     1  UNL1        0.1895
     11 C          19.2963   71.0080   -4.0289 C.3     1  UNL1        0.1764
     12 C          17.0764   71.2983   -4.7363 C.3     1  UNL1        0.2383
     13 H          17.6178   68.5914   -2.6656 H       1  UNL1        0.2105
     14 H          16.7223   68.0487   -4.9991 H       1  UNL1        0.2106
     15 O          17.6006   70.4723   -7.3860 O.2     1  UNL1       -0.2464
     16 O          15.0628   73.8919   -9.1486 O.2     1  UNL1       -0.2670
     17 N          16.5651   71.9543   -5.9067 N.ar    1  UNL1       -0.2551
     18 N          16.3364   72.1756   -8.2615 N.ar    1  UNL1       -0.2743
     19 C          16.8889   71.4598   -7.1916 C.ar    1  UNL1        0.3323
     20 C          15.7521   73.0746   -5.7737 C.ar    1  UNL1        0.0869
     21 C          15.2343   73.7466   -6.8040 C.ar    1  UNL1        0.0795
     22 C          15.5239   73.2954   -8.1804 C.ar    1  UNL1        0.2626
     23 H          16.5486   71.8496   -9.1662 H       1  UNL1        0.1734
     24 O          22.0554   73.5803   -4.3515 O.3     1  UNL1       -0.2703
     25 P          23.1548   72.8769   -3.3978 P.3     1  UNL1        0.2208
     26 O          24.4617   73.8118   -3.5859 O.co2   1  UNL1       -0.4371
     27 O          23.3856   71.4231   -3.6932 O.2     1  UNL1       -0.5170
     28 O          22.6479   73.1820   -1.8961 O.3     1  UNL1       -0.2858
     29 O          21.7587   71.3644   -0.6624 O.3     1  UNL1       -0.3258
     30 O          20.2631   74.4854    1.5901 O.3     1  UNL1       -0.3794
     31 O          22.4072   72.8844    2.6328 O.3     1  UNL1       -0.3794
     32 O          20.3713   74.7084   -1.2941 O.3     1  UNL1       -0.3775
     33 C          21.2242   73.8121    0.7725 C.3     1  UNL1        0.1715
     34 C          21.6424   72.5247    1.4856 C.3     1  UNL1        0.1694
     35 C          20.5931   73.4958   -0.5821 C.3     1  UNL1        0.1967
     36 C          22.4641   71.6195    0.5579 C.3     1  UNL1        0.1761
     37 C          21.4685   72.5497   -1.4059 C.3     1  UNL1        0.2704
     38 H          20.6576   74.6896    2.4515 H       1  UNL1        0.2105
     39 H          21.8771   73.4563    3.2100 H       1  UNL1        0.2105
     40 H          19.8157   75.2985   -0.7622 H       1  UNL1        0.2106
     41 O          22.1563   69.2551    0.4038 O.3     1  UNL1       -0.3794
     42 C          22.7577   70.2632    1.1953 C.3     1  UNL1        0.1693
     43 H          22.3352   68.3863    0.7973 H       1  UNL1        0.2105
@<TRIPOS>UNITY_ATOM_ATTR
2 1
charge -1
26 1
charge -1
@<TRIPOS>BOND
     1    25    28    1
     2    25    24    1
     3    25    26    1
     4    25    27    2
     5     1     4    1
     6     1    24    1
     7     1     2    1
     8     1     3    2
     9     6    11    1
    10     6    12    1
    11    29    36    1
    12    29    37    1
    13     7     9    1
    14     7    13    1
    15     8    10    1
    16     8    14    1
    17    28    37    1
    18     4     5    1
    19    30    33    1
    20    30    38    1
    21    31    34    1
    22    31    39    1
    23    32    35    1
    24    32    40    1
    25    41    42    1
    26    41    43    1
    27    15    19    2
    28    16    22    2
    29    17    12    1
    30    17    19   ar
    31    17    20   ar
    32    18    19   ar
    33    18    22   ar
    34    18    23    1
    35     9    10    1
    36     9    11    1
    37    10    12    1
    38    11     5    1
    39    33    34    1
    40    33    35    1
    41    34    36    1
    42    35    37    1
    43    36    42    1
    44    20    21   ar
    45    21    22   ar
@<TRIPOS>MOLECULE
*****
 43 45 0 0 0
SMALL
GASTEIGER

@<TRIPOS>ATOM
      1 P          21.7579   72.6755   -4.6926 P.3     1  UNL1        0.2189
      2 O          23.3262   72.9405   -4.9887 O.co2   1  UNL1       -0.4371
      3 O          21.4479   71.3528   -4.0556 O.2     1  UNL1       -0.5170
      4 O          21.0413   72.9551   -6.1160 O.3     1  UNL1       -0.3112
      5 C          20.1518   71.9783   -6.6285 C.3     1  UNL1        0.1811
      6 O          18.0280   73.0189   -6.2036 O.3     1  UNL1       -0.3308
      7 O          17.2980   70.5028   -4.7450 O.3     1  UNL1       -0.3794
      8 O          16.0474   70.1816   -7.1469 O.3     1  UNL1       -0.3779
      9 C          18.0898   70.6669   -5.9204 C.3     1  UNL1        0.1713
     10 C          17.2071   70.9881   -7.1084 C.3     1  UNL1        0.1895
     11 C          18.8965   71.9503   -5.7673 C.3     1  UNL1        0.1764
     12 C          16.8909   72.4561   -6.8782 C.3     1  UNL1        0.2383
     13 H          16.7741   69.6893   -4.8193 H       1  UNL1        0.2105
     14 H          16.3010   69.2572   -7.2954 H       1  UNL1        0.2106
     15 O          18.6683   72.4235   -9.0731 O.2     1  UNL1       -0.2464
     16 O          15.9681   75.2313  -11.5361 O.2     1  UNL1       -0.2670
     17 N          16.6770   73.1693   -8.1058 N.ar    1  UNL1       -0.2551
     18 N          17.3223   73.8215  -10.2978 N.ar    1  UNL1       -0.2743
     19 C          17.6319   73.0869   -9.1460 C.ar    1  UNL1        0.3323
     20 C          15.5307   73.9394   -8.2692 C.ar    1  UNL1        0.0869
     21 C          15.2509   74.6349   -9.3734 C.ar    1  UNL1        0.0795
     22 C          16.1968   74.6026  -10.5074 C.ar    1  UNL1        0.2626
     23 H          17.9732   73.7794  -11.0355 H       1  UNL1        0.1734
     24 O          21.3318   73.9625   -3.8122 O.3     1  UNL1       -0.2703
     25 P          21.9636   74.5786   -2.4579 P.3     1  UNL1        0.2208
     26 O          20.8937   75.7155   -2.0332 O.co2   1  UNL1       -0.4371
     27 O          23.3714   75.0781   -2.6075 O.2     1  UNL1       -0.5170
     28 O          21.7806   73.4144   -1.3552 O.3     1  UNL1       -0.2858
     29 O          23.1759   73.5798    0.5532 O.3     1  UNL1       -0.3258
     30 O          21.9335   69.6652    0.9815 O.3     1  UNL1       -0.3794
     31 O          20.9106   71.6796    2.7547 O.3     1  UNL1       -0.3794
     32 O          22.5032   70.7192   -1.6536 O.3     1  UNL1       -0.3775
     33 C          21.7976   71.0439    0.6263 C.3     1  UNL1        0.1715
     34 C          22.0190   71.8871    1.8836 C.3     1  UNL1        0.1694
     35 C          22.8340   71.3887   -0.4416 C.3     1  UNL1        0.1967
     36 C          22.1537   73.3757    1.5356 C.3     1  UNL1        0.1761
     37 C          22.9224   72.8977   -0.6766 C.3     1  UNL1        0.2704
     38 H          21.2780   69.4397    1.6590 H       1  UNL1        0.2105
     39 H          20.8364   70.7357    2.9662 H       1  UNL1        0.2105
     40 H          22.4506   69.7648   -1.4917 H       1  UNL1        0.2106
     41 O          21.3484   74.5398    3.4605 O.3     1  UNL1       -0.3794
     42 C          22.5314   74.2159    2.7536 C.3     1  UNL1        0.1693
     43 H          21.5734   75.0742    4.2386 H       1  UNL1        0.2105
@<TRIPOS>UNITY_ATOM_ATTR
2 1
charge -1
26 1
charge -1
@<TRIPOS>BOND
     1    25    28    1
     2    25    24    1
     3    25    26    1
     4    25    27    2
     5     1     4    1
     6     1    24    1
     7     1     2    1
     8     1     3    2
     9     6    11    1
    10     6    12    1
    11    29    36    1
    12    29    37    1
    13     7     9    1
    14     7    13    1
    15     8    10    1
    16     8    14    1
    17    28    37    1
    18     4     5    1
    19    30    33    1
    20    30    38    1
    21    31    34    1
    22    31    39    1
    23    32    35    1
    24    32    40    1
    25    41    42    1
    26    41    43    1
    27    15    19    2
    28    16    22    2
    29    17    12    1
    30    17    19   ar
    31    17    20   ar
    32    18    19   ar
    33    18    22   ar
    34    18    23    1
    35     9    10    1
    36     9    11    1
    37    10    12    1
    38    11     5    1
    39    33    34    1
    40    33    35    1
    41    34    36    1
    42    35    37    1
    43    36    42    1
    44    20    21   ar
    45    21    22   ar
@<TRIPOS>MOLECULE
*****
 43 45 0 0 0
SMALL
GASTEIGER

@<TRIPOS>ATOM
      1 P          21.6419   72.8116   -4.9251 P.3     1  UNL1        0.2189
      2 O          21.1493   74.0352   -3.9883 O.co2   1  UNL1       -0.4371
      3 O          23.1146   72.7858   -5.2116 O.2     1  UNL1       -0.5170
      4 O          20.6757   72.9003   -6.2199 O.3     1  UNL1       -0.3112
      5 C          21.2592   72.7985   -7.5072 C.3     1  UNL1        0.1811
      6 O          19.7447   70.9335   -7.4626 O.3     1  UNL1       -0.3308
      7 O          19.0128   71.7011  -10.2673 O.3     1  UNL1       -0.3794
      8 O          16.9427   72.7190   -8.8130 O.3     1  UNL1       -0.3779
      9 C          19.3423   72.5378   -9.1597 C.3     1  UNL1        0.1713
     10 C          18.1946   72.5796   -8.1725 C.3     1  UNL1        0.1895
     11 C          20.4307   71.8410   -8.3527 C.3     1  UNL1        0.1764
     12 C          18.3420   71.2453   -7.4612 C.3     1  UNL1        0.2383
     13 H          18.3197   72.1254  -10.7978 H       1  UNL1        0.2105
     14 H          16.8978   73.5834   -9.2507 H       1  UNL1        0.2106
     15 O          17.4091   73.5816   -6.1768 O.2     1  UNL1       -0.2464
     16 O          16.5823   71.3136   -2.2508 O.2     1  UNL1       -0.2670
     17 N          17.8766   71.2940   -6.1038 N.ar    1  UNL1       -0.2551
     18 N          16.9980   72.4504   -4.2231 N.ar    1  UNL1       -0.2743
     19 C          17.4300   72.5181   -5.5538 C.ar    1  UNL1        0.3323
     20 C          17.8656   70.1365   -5.3331 C.ar    1  UNL1        0.0869
     21 C          17.4518   70.0890   -4.0651 C.ar    1  UNL1        0.0795
     22 C          16.9693   71.3246   -3.4152 C.ar    1  UNL1        0.2626
     23 H          16.6828   73.2912   -3.8187 H       1  UNL1        0.1734
     24 O          21.0854   71.5097   -4.1450 O.3     1  UNL1       -0.2703
     25 P          21.7295   70.6325   -2.9499 P.3     1  UNL1        0.2208
     26 O          23.3126   70.6573   -3.2830 O.co2   1  UNL1       -0.4371
     27 O          21.1468   69.2555   -2.8142 O.2     1  UNL1       -0.5170
     28 O          21.5750   71.5566   -1.6357 O.3     1  UNL1       -0.2858
     29 O          23.2216   72.9044   -0.5922 O.3     1  UNL1       -0.3258
     30 O          21.0884   71.7601    2.7531 O.3     1  UNL1       -0.3794
     31 O          20.8792   74.4585    1.7925 O.3     1  UNL1       -0.3794
     32 O          21.5309   69.8694    0.6063 O.3     1  UNL1       -0.3775
     33 C          21.2625   72.1333    1.3835 C.3     1  UNL1        0.1715
     34 C          21.8688   73.5374    1.3425 C.3     1  UNL1        0.1694
     35 C          22.1907   71.1269    0.7061 C.3     1  UNL1        0.1967
     36 C          22.3309   73.9000   -0.0753 C.3     1  UNL1        0.1761
     37 C          22.6298   71.6066   -0.6785 C.3     1  UNL1        0.2704
     38 H          20.4996   72.3949    3.1889 H       1  UNL1        0.2105
     39 H          20.5956   74.2181    2.6886 H       1  UNL1        0.2105
     40 H          21.2582   69.5765    1.4893 H       1  UNL1        0.2106
     41 O          23.4720   75.5597    1.2101 O.3     1  UNL1       -0.3794
     42 C          23.0803   75.2301   -0.1099 C.3     1  UNL1        0.1693
     43 H          23.9504   76.4040    1.2034 H       1  UNL1        0.2105
@<TRIPOS>UNITY_ATOM_ATTR
2 1
charge -1
26 1
charge -1
@<TRIPOS>BOND
     1    25    28    1
     2    25    24    1
     3    25    26    1
     4    25    27    2
     5     1     4    1
     6     1    24    1
     7     1     2    1
     8     1     3    2
     9     6    11    1
    10     6    12    1
    11    29    36    1
    12    29    37    1
    13     7     9    1
    14     7    13    1
    15     8    10    1
    16     8    14    1
    17    28    37    1
    18     4     5    1
    19    30    33    1
    20    30    38    1
    21    31    34    1
    22    31    39    1
    23    32    35    1
    24    32    40    1
    25    41    42    1
    26    41    43    1
    27    15    19    2
    28    16    22    2
    29    17    12    1
    30    17    19   ar
    31    17    20   ar
    32    18    19   ar
    33    18    22   ar
    34    18    23    1
    35     9    10    1
    36     9    11    1
    37    10    12    1
    38    11     5    1
    39    33    34    1
    40    33    35    1
    41    34    36    1
    42    35    37    1
    43    36    42    1
    44    20    21   ar
    45    21    22   ar
@<TRIPOS>MOLECULE
*****
 43 45 0 0 0
SMALL
GASTEIGER

@<TRIPOS>ATOM
      1 P          19.2119   69.9600   -3.1551 P.3     1  UNL1        0.2189
      2 O          17.8555   69.6568   -2.3272 O.co2   1  UNL1       -0.4371
      3 O          20.1768   68.8135   -3.2326 O.2     1  UNL1       -0.5170
      4 O          19.7837   71.3152   -2.4811 O.3     1  UNL1       -0.3112
      5 C          19.6467   72.5336   -3.1915 C.3     1  UNL1        0.1811
      6 O          21.6735   73.5332   -2.3750 O.3     1  UNL1       -0.3308
      7 O          22.9452   72.5847   -4.9193 O.3     1  UNL1       -0.3794
      8 O          23.7765   70.7222   -3.1091 O.3     1  UNL1       -0.3779
      9 C          21.9427   71.9556   -4.1227 C.3     1  UNL1        0.1713
     10 C          22.5549   71.3872   -2.8595 C.3     1  UNL1        0.1895
     11 C          21.0297   73.0440   -3.5719 C.3     1  UNL1        0.1764
     12 C          22.7306   72.6322   -2.0067 C.3     1  UNL1        0.2383
     13 H          23.5403   71.9094   -5.2824 H       1  UNL1        0.2105
     14 H          23.6120   69.9376   -3.6550 H       1  UNL1        0.2106
     15 O          22.3432   70.0555   -0.9166 O.2     1  UNL1       -0.2464
     16 O          22.3811   71.6752    3.3980 O.2     1  UNL1       -0.2670
     17 N          22.6359   72.3516   -0.6018 N.ar    1  UNL1       -0.2551
     18 N          22.3625   70.8640    1.2309 N.ar    1  UNL1       -0.2743
     19 C          22.4400   71.0229   -0.1587 C.ar    1  UNL1        0.3323
     20 C          22.7375   73.3877    0.3202 C.ar    1  UNL1        0.0869
     21 C          22.6603   73.2197    1.6419 C.ar    1  UNL1        0.0795
     22 C          22.4563   71.8623    2.1876 C.ar    1  UNL1        0.2626
     23 H          22.2259   69.9470    1.5627 H       1  UNL1        0.1734
     24 O          18.6582   70.4711   -4.5852 O.3     1  UNL1       -0.2703
     25 P          17.1515   70.5957   -5.1572 P.3     1  UNL1        0.2208
     26 O          16.3783   71.4091   -3.9919 O.co2   1  UNL1       -0.4371
     27 O          16.5202   69.2826   -5.5193 O.2     1  UNL1       -0.5170
     28 O          17.2640   71.6434   -6.3798 O.3     1  UNL1       -0.2858
     29 O          19.3123   71.7369   -7.5682 O.3     1  UNL1       -0.3258
     30 O          17.7142   75.3655   -8.7215 O.3     1  UNL1       -0.3794
     31 O          17.8352   73.2050  -10.6098 O.3     1  UNL1       -0.3794
     32 O          17.3490   74.4237   -6.0087 O.3     1  UNL1       -0.3775
     33 C          17.6784   73.9839   -8.3538 C.3     1  UNL1        0.1715
     34 C          18.5204   73.1977   -9.3605 C.3     1  UNL1        0.1694
     35 C          18.2428   73.8280   -6.9429 C.3     1  UNL1        0.1967
     36 C          18.7497   71.7566   -8.8853 C.3     1  UNL1        0.1761
     37 C          18.4789   72.3589   -6.5881 C.3     1  UNL1        0.2704
     38 H          17.3567   75.4714   -9.6162 H       1  UNL1        0.2105
     39 H          17.6963   74.1208  -10.8984 H       1  UNL1        0.2105
     40 H          17.2080   75.3536   -6.2440 H       1  UNL1        0.2106
     41 O          18.9619   70.2334  -10.7138 O.3     1  UNL1       -0.3794
     42 C          19.7166   71.0015   -9.7947 C.3     1  UNL1        0.1693
     43 H          19.5643   69.7475  -11.2994 H       1  UNL1        0.2105
@<TRIPOS>UNITY_ATOM_ATTR
2 1
charge -1
26 1
charge -1
@<TRIPOS>BOND
     1    25    28    1
     2    25    24    1
     3    25    26    1
     4    25    27    2
     5     1     4    1
     6     1    24    1
     7     1     2    1
     8     1     3    2
     9     6    11    1
    10     6    12    1
    11    29    36    1
    12    29    37    1
    13     7     9    1
    14     7    13    1
    15     8    10    1
    16     8    14    1
    17    28    37    1
    18     4     5    1
    19    30    33    1
    20    30    38    1
    21    31    34    1
    22    31    39    1
    23    32    35    1
    24    32    40    1
    25    41    42    1
    26    41    43    1
    27    15    19    2
    28    16    22    2
    29    17    12    1
    30    17    19   ar
    31    17    20   ar
    32    18    19   ar
    33    18    22   ar
    34    18    23    1
    35     9    10    1
    36     9    11    1
    37    10    12    1
    38    11     5    1
    39    33    34    1
    40    33    35    1
    41    34    36    1
    42    35    37    1
    43    36    42    1
    44    20    21   ar
    45    21    22   ar
@<TRIPOS>MOLECULE
*****
 43 45 0 0 0
SMALL
GASTEIGER

@<TRIPOS>ATOM
      1 P          22.4988   73.0150   -4.6926 P.3     1  UNL1        0.2189
      2 O          21.6348   74.3548   -4.4174 O.co2   1  UNL1       -0.4371
      3 O          23.8741   73.0133   -4.0926 O.2     1  UNL1       -0.5170
      4 O          22.4327   72.8332   -6.2990 O.3     1  UNL1       -0.3112
      5 C          21.1934   73.0439   -6.9529 C.3     1  UNL1        0.1811
      6 O          19.1538   71.7833   -6.7967 O.3     1  UNL1       -0.3308
      7 O          20.3891   69.8954   -8.7718 O.3     1  UNL1       -0.3794
      8 O          18.7154   71.3778  -10.3332 O.3     1  UNL1       -0.3779
      9 C          20.5038   71.3149   -8.6872 C.3     1  UNL1        0.1713
     10 C          19.2245   71.9748   -9.1579 C.3     1  UNL1        0.1895
     11 C          20.5344   71.6962   -7.2124 C.3     1  UNL1        0.1764
     12 C          18.3104   71.7800   -7.9601 C.3     1  UNL1        0.2383
     13 H          20.3680   69.6279   -9.7045 H       1  UNL1        0.2105
     14 H          19.3323   71.5292  -11.0662 H       1  UNL1        0.2106
     15 O          15.9733   71.6143   -6.3826 O.2     1  UNL1       -0.2464
     16 O          14.6576   75.8721   -7.5580 O.2     1  UNL1       -0.2670
     17 N          17.3398   72.8306   -7.8354 N.ar    1  UNL1       -0.2551
     18 N          15.3202   73.7346   -6.9690 N.ar    1  UNL1       -0.2743
     19 C          16.2002   72.6459   -7.0182 C.ar    1  UNL1        0.3323
     20 C          17.5229   74.0280   -8.5185 C.ar    1  UNL1        0.0869
     21 C          16.6737   75.0560   -8.4620 C.ar    1  UNL1        0.0795
     22 C          15.4578   74.9446   -7.6306 C.ar    1  UNL1        0.2626
     23 H          14.5190   73.6286   -6.4063 H       1  UNL1        0.1734
     24 O          21.5284   71.8398   -4.1538 O.3     1  UNL1       -0.2703
     25 P          21.7549   70.7143   -3.0159 P.3     1  UNL1        0.2208
     26 O          23.3392   70.4013   -3.1138 O.co2   1  UNL1       -0.4371
     27 O          20.8749   69.5066   -3.1610 O.2     1  UNL1       -0.5170
     28 O          21.5811   71.5045   -1.6194 O.3     1  UNL1       -0.2858
     29 O          23.2589   72.8363   -0.6056 O.3     1  UNL1       -0.3258
     30 O          21.2072   71.6685    2.7822 O.3     1  UNL1       -0.3794
     31 O          20.9842   74.3766    1.8524 O.3     1  UNL1       -0.3794
     32 O          21.5875   69.7965    0.6072 O.3     1  UNL1       -0.3775
     33 C          21.3478   72.0539    1.4121 C.3     1  UNL1        0.1715
     34 C          21.9584   73.4561    1.3687 C.3     1  UNL1        0.1694
     35 C          22.2545   71.0505    0.7018 C.3     1  UNL1        0.1967
     36 C          22.3856   73.8303   -0.0570 C.3     1  UNL1        0.1761
     37 C          22.6601   71.5416   -0.6890 C.3     1  UNL1        0.2704
     38 H          20.6322   72.3013    3.2388 H       1  UNL1        0.2105
     39 H          20.7225   74.1287    2.7531 H       1  UNL1        0.2105
     40 H          21.3362   69.4963    1.4941 H       1  UNL1        0.2106
     41 O          23.8865   75.2879    1.0971 O.3     1  UNL1       -0.3794
     42 C          23.1391   75.1580   -0.0983 C.3     1  UNL1        0.1693
     43 H          24.3716   76.1283    1.0847 H       1  UNL1        0.2105
@<TRIPOS>UNITY_ATOM_ATTR
2 1
charge -1
26 1
charge -1
@<TRIPOS>BOND
     1    25    28    1
     2    25    24    1
     3    25    26    1
     4    25    27    2
     5     1     4    1
     6     1    24    1
     7     1     2    1
     8     1     3    2
     9     6    11    1
    10     6    12    1
    11    29    36    1
    12    29    37    1
    13     7     9    1
    14     7    13    1
    15     8    10    1
    16     8    14    1
    17    28    37    1
    18     4     5    1
    19    30    33    1
    20    30    38    1
    21    31    34    1
    22    31    39    1
    23    32    35    1
    24    32    40    1
    25    41    42    1
    26    41    43    1
    27    15    19    2
    28    16    22    2
    29    17    12    1
    30    17    19   ar
    31    17    20   ar
    32    18    19   ar
    33    18    22   ar
    34    18    23    1
    35     9    10    1
    36     9    11    1
    37    10    12    1
    38    11     5    1
    39    33    34    1
    40    33    35    1
    41    34    36    1
    42    35    37    1
    43    36    42    1
    44    20    21   ar
    45    21    22   ar
