@<TRIPOS>MOLECULE
UD1
 46 48 0 0 0
SMALL
GASTEIGER

@<TRIPOS>ATOM
      1 P          20.6521   71.7458   -2.2929 P.3     1  UNL1        0.2189
      2 O          21.4665   72.9807   -2.2709 O.2     1  UNL1       -0.5170
      3 O          21.4992   70.5562   -2.9710 O.3     1  UNL1       -0.4371
      4 O          19.3115   72.0029   -3.1470 O.3     1  UNL1       -0.3112
      5 C          18.2673   71.2645   -2.5107 C.3     1  UNL1        0.1811
      6 C          16.8434   70.6254   -5.7497 C.3     1  UNL1        0.2383
      7 C          16.9377   69.2293   -5.0848 C.3     1  UNL1        0.1895
      8 O          15.8931   68.3718   -5.5461 O.3     1  UNL1       -0.3779
      9 C          16.7511   69.5703   -3.5834 C.3     1  UNL1        0.1713
     10 C          17.1109   71.0658   -3.4917 C.3     1  UNL1        0.1764
     11 O          17.5059   71.4941   -4.8062 O.3     1  UNL1       -0.3308
     12 O          15.3964   69.3497   -3.1848 O.3     1  UNL1       -0.3794
     13 H          16.0084   67.5231   -5.0969 H       1  UNL1        0.2106
     14 H          15.2146   68.4104   -3.3214 H       1  UNL1        0.2105
     15 N          17.5389   70.6356   -7.0372 N.ar    1  UNL1       -0.2551
     16 C          16.8362   70.4993   -8.1751 C.ar    1  UNL1        0.3323
     17 N          17.4492   70.5090   -9.3737 N.ar    1  UNL1       -0.2743
     18 C          18.7881   70.6473   -9.4509 C.ar    1  UNL1        0.2626
     19 C          19.5407   70.7857   -8.2604 C.ar    1  UNL1        0.0795
     20 C          18.8999   70.7779   -7.0719 C.ar    1  UNL1        0.0869
     21 O          15.6279   70.3737   -8.1218 O.2     1  UNL1       -0.2464
     22 O          19.3439   70.6514  -10.5338 O.2     1  UNL1       -0.2670
     23 H          16.9261   70.4142  -10.1846 H       1  UNL1        0.1734
     24 O          20.2587   71.3353   -0.7877 O.3     1  UNL1       -0.2703
     25 P          21.6383   71.1579    0.0214 P.3     1  UNL1        0.2208
     26 O          22.7445   70.9295   -0.9342 O.2     1  UNL1       -0.5170
     27 O          21.5199   69.8969    1.0154 O.3     1  UNL1       -0.4371
     28 O          21.9349   72.4882    0.8774 O.3     1  UNL1       -0.2865
     29 C          21.8805   72.1150    2.2555 C.3     1  UNL1        0.2611
     30 C          21.7649   73.3746    3.1156 C.3     1  UNL1        0.1582
     31 C          22.9740   74.2777    2.8469 C.3     1  UNL1        0.1625
     32 C          24.2528   73.4600    3.0567 C.3     1  UNL1        0.1686
     33 C          24.1820   72.1952    2.1984 C.3     1  UNL1        0.1760
     34 O          22.9555   75.3841    3.7507 O.3     1  UNL1       -0.3801
     35 O          25.3868   74.2386    2.6701 O.3     1  UNL1       -0.3794
     36 O          23.0661   71.4017    2.6004 O.3     1  UNL1       -0.3263
     37 H          23.7311   75.9246    3.5466 H       1  UNL1        0.2105
     38 H          26.1682   73.6870    2.8172 H       1  UNL1        0.2105
     39 C          19.6264   74.3653    3.7315 C.2     1  UNL1        0.2231
     40 C          18.3584   75.1007    3.3799 C.3     1  UNL1        0.0946
     41 N          20.5333   74.0895    2.7746 N.am    1  UNL1       -0.2994
     42 O          19.8300   74.0211    4.8762 O.2     1  UNL1       -0.2751
     43 H          20.3704   74.3646    1.8585 H       1  UNL1        0.1496
     44 C          25.4691   71.3872    2.3759 C.3     1  UNL1        0.1693
     45 O          25.6878   70.5786    1.2181 O.3     1  UNL1       -0.3794
     46 H          26.5062   70.0869    1.3707 H       1  UNL1        0.2105
@<TRIPOS>BOND
     1    29    30    1
     2    29    28    1
     3    29    36    1
     4    30    31    1
     5    30    41    1
     6    31    32    1
     7    31    34    1
     8    32    33    1
     9    32    35    1
    10    33    44    1
    11    33    36    1
    12    44    45    1
    13    39    40    1
    14    39    41   am
    15    39    42    2
    16    41    43    1
    17    28    25    1
    18    34    37    1
    19    35    38    1
    20    45    46    1
    21    15    16   ar
    22    15    20   ar
    23    15     6    1
    24    16    17   ar
    25    16    21    2
    26    17    18   ar
    27    17    23    1
    28    18    19   ar
    29    18    22    2
    30    19    20   ar
    31     6     7    1
    32     6    11    1
    33     7     8    1
    34     7     9    1
    35     8    13    1
    36     9    10    1
    37     9    12    1
    38    10    11    1
    39    10     5    1
    40    12    14    1
    41     5     4    1
    42     4     1    1
    43     1     2    2
    44     1     3    1
    45     1    24    1
    46    24    25    1
    47    25    26    2
    48    25    27    1
@<TRIPOS>MOLECULE
UD1
 46 48 0 0 0
SMALL
GASTEIGER

@<TRIPOS>ATOM
      1 P          20.5446   72.1953   -2.2127 P.3     1  UNL1        0.2189
      2 O          19.9583   73.5214   -2.5063 O.2     1  UNL1       -0.5170
      3 O          22.1226   72.2235   -2.5317 O.3     1  UNL1       -0.4371
      4 O          19.8326   71.0794   -3.1296 O.3     1  UNL1       -0.3112
      5 C          18.6750   70.6371   -2.4192 C.3     1  UNL1        0.1811
      6 C          17.0287   70.4995   -5.6126 C.3     1  UNL1        0.2383
      7 C          16.9622   69.0466   -5.0787 C.3     1  UNL1        0.1895
      8 O          15.7901   68.3816   -5.5511 O.3     1  UNL1       -0.3779
      9 C          16.8936   69.2662   -3.5450 C.3     1  UNL1        0.1713
     10 C          17.4581   70.6859   -3.3444 C.3     1  UNL1        0.1764
     11 O          17.8465   71.1804   -4.6374 O.3     1  UNL1       -0.3308
     12 O          15.5414   69.1894   -3.0884 O.3     1  UNL1       -0.3794
     13 H          15.8091   67.4865   -5.1851 H       1  UNL1        0.2106
     14 H          15.2269   68.2992   -3.2955 H       1  UNL1        0.2105
     15 N          17.6587   70.5393   -6.9328 N.ar    1  UNL1       -0.2551
     16 C          16.8954   70.4740   -8.0376 C.ar    1  UNL1        0.3323
     17 N          17.4475   70.5124   -9.2647 N.ar    1  UNL1       -0.2743
     18 C          18.7850   70.6085   -9.4054 C.ar    1  UNL1        0.2626
     19 C          19.6008   70.6720   -8.2508 C.ar    1  UNL1        0.0795
     20 C          19.0205   70.6369   -7.0320 C.ar    1  UNL1        0.0869
     21 O          15.6876   70.3872   -7.9270 O.2     1  UNL1       -0.2464
     22 O          19.2855   70.6385  -10.5144 O.2     1  UNL1       -0.2670
     23 H          16.8813   70.4690  -10.0508 H       1  UNL1        0.1734
     24 O          20.3163   71.8394   -0.6602 O.3     1  UNL1       -0.2703
     25 P          21.7455   71.3934   -0.0704 P.3     1  UNL1        0.2208
     26 O          22.5609   70.7975   -1.1516 O.2     1  UNL1       -0.5170
     27 O          21.5293   70.3075    1.0984 O.3     1  UNL1       -0.4371
     28 O          22.5056   72.6797    0.5281 O.3     1  UNL1       -0.2865
     29 C          21.5105   73.6783    0.7602 C.3     1  UNL1        0.2611
     30 C          22.0908   75.0552    0.4327 C.3     1  UNL1        0.1582
     31 C          23.3214   75.3027    1.3126 C.3     1  UNL1        0.1625
     32 C          22.9261   75.0935    2.7782 C.3     1  UNL1        0.1686
     33 C          22.2854   73.7122    2.9293 C.3     1  UNL1        0.1760
     34 O          23.7833   76.6416    1.1242 O.3     1  UNL1       -0.3801
     35 O          24.0897   75.1750    3.6034 O.3     1  UNL1       -0.3794
     36 O          21.1074   73.6368    2.1274 O.3     1  UNL1       -0.3263
     37 H          24.5562   76.7533    1.6946 H       1  UNL1        0.2105
     38 H          23.7963   75.0372    4.5152 H       1  UNL1        0.2105
     39 C          23.7551   74.8542   -1.3348 C.2     1  UNL1        0.2231
     40 C          24.1549   74.9010   -2.7874 C.3     1  UNL1        0.0946
     41 N          22.4796   75.1000   -0.9783 N.am    1  UNL1       -0.2994
     42 O          24.5819   74.5959   -0.4864 O.2     1  UNL1       -0.2751
     43 H          21.8178   75.3070   -1.6571 H       1  UNL1        0.1496
     44 C          21.9164   73.4802    4.3959 C.3     1  UNL1        0.1693
     45 O          22.4545   72.2299    4.8309 O.3     1  UNL1       -0.3794
     46 H          22.1995   72.1226    5.7573 H       1  UNL1        0.2105
@<TRIPOS>BOND
     1    29    30    1
     2    29    28    1
     3    29    36    1
     4    30    31    1
     5    30    41    1
     6    31    32    1
     7    31    34    1
     8    32    33    1
     9    32    35    1
    10    33    44    1
    11    33    36    1
    12    44    45    1
    13    39    40    1
    14    39    41   am
    15    39    42    2
    16    41    43    1
    17    28    25    1
    18    34    37    1
    19    35    38    1
    20    45    46    1
    21    15    16   ar
    22    15    20   ar
    23    15     6    1
    24    16    17   ar
    25    16    21    2
    26    17    18   ar
    27    17    23    1
    28    18    19   ar
    29    18    22    2
    30    19    20   ar
    31     6     7    1
    32     6    11    1
    33     7     8    1
    34     7     9    1
    35     8    13    1
    36     9    10    1
    37     9    12    1
    38    10    11    1
    39    10     5    1
    40    12    14    1
    41     5     4    1
    42     4     1    1
    43     1     2    2
    44     1     3    1
    45     1    24    1
    46    24    25    1
    47    25    26    2
    48    25    27    1
@<TRIPOS>MOLECULE
UD1
 46 48 0 0 0
SMALL
GASTEIGER

@<TRIPOS>ATOM
      1 P          20.8790   71.3691   -1.2324 P.3     1  UNL1        0.2189
      2 O          21.7738   70.6705   -2.1811 O.2     1  UNL1       -0.5170
      3 O          20.7049   70.4774    0.0969 O.3     1  UNL1       -0.4371
      4 O          19.4399   71.5936   -1.9191 O.3     1  UNL1       -0.3112
      5 C          19.0810   70.3589   -2.5412 C.3     1  UNL1        0.1811
      6 C          17.2670   70.4767   -5.6432 C.3     1  UNL1        0.2383
      7 C          17.0661   69.0285   -5.1309 C.3     1  UNL1        0.1895
      8 O          15.8042   68.5082   -5.5506 O.3     1  UNL1       -0.3779
      9 C          17.1018   69.2195   -3.5922 C.3     1  UNL1        0.1713
     10 C          17.8311   70.5631   -3.3986 C.3     1  UNL1        0.1764
     11 O          18.2051   71.0406   -4.7022 O.3     1  UNL1       -0.3308
     12 O          15.7749   69.2826   -3.0650 O.3     1  UNL1       -0.3794
     13 H          15.7419   67.6085   -5.2011 H       1  UNL1        0.2106
     14 H          15.3526   68.4377   -3.2697 H       1  UNL1        0.2105
     15 N          17.8285   70.4763   -6.9946 N.ar    1  UNL1       -0.2551
     16 C          17.0063   70.4471   -8.0578 C.ar    1  UNL1        0.3323
     17 N          17.4949   70.4500   -9.3122 N.ar    1  UNL1       -0.2743
     18 C          18.8264   70.4731   -9.5227 C.ar    1  UNL1        0.2626
     19 C          19.7036   70.4981   -8.4124 C.ar    1  UNL1        0.0795
     20 C          19.1866   70.4999   -7.1650 C.ar    1  UNL1        0.0869
     21 O          15.8029   70.4260   -7.8841 O.2     1  UNL1       -0.2464
     22 O          19.2694   70.4710  -10.6563 O.2     1  UNL1       -0.2670
     23 H          16.8870   70.4334  -10.0674 H       1  UNL1        0.1734
     24 O          21.5163   72.7945   -0.8440 O.3     1  UNL1       -0.2703
     25 P          22.5983   72.5197    0.3149 P.3     1  UNL1        0.2208
     26 O          23.1447   71.1530    0.1654 O.2     1  UNL1       -0.5170
     27 O          21.8911   72.6595    1.7545 O.3     1  UNL1       -0.4371
     28 O          23.7938   73.5911    0.1996 O.3     1  UNL1       -0.2865
     29 C          23.6540   74.4884    1.3026 C.3     1  UNL1        0.2611
     30 C          23.9591   73.7421    2.6026 C.3     1  UNL1        0.1582
     31 C          22.9928   72.5603    2.7407 C.3     1  UNL1        0.1625
     32 C          21.5580   73.0824    2.6098 C.3     1  UNL1        0.1686
     33 C          21.4334   73.8760    1.3075 C.3     1  UNL1        0.1760
     34 O          23.1675   71.9457    4.0186 O.3     1  UNL1       -0.3801
     35 O          20.6486   71.9806    2.5886 O.3     1  UNL1       -0.3794
     36 O          22.3208   74.9931    1.3368 O.3     1  UNL1       -0.3263
     37 H          22.5421   71.2093    4.0624 H       1  UNL1        0.2105
     38 H          19.7595   72.3533    2.5045 H       1  UNL1        0.2105
     39 C          25.5797   71.9234    2.6016 C.2     1  UNL1        0.2231
     40 C          26.9986   71.4153    2.5707 C.3     1  UNL1        0.0946
     41 N          25.3372   73.2480    2.5720 N.am    1  UNL1       -0.2994
     42 O          24.6561   71.1397    2.6538 O.2     1  UNL1       -0.2751
     43 H          26.0762   73.8755    2.5305 H       1  UNL1        0.1496
     44 C          19.9953   74.3745    1.1512 C.3     1  UNL1        0.1693
     45 O          19.2046   73.3612    0.5265 O.3     1  UNL1       -0.3794
     46 H          18.3084   73.7150    0.4468 H       1  UNL1        0.2105
@<TRIPOS>BOND
     1    29    30    1
     2    29    28    1
     3    29    36    1
     4    30    31    1
     5    30    41    1
     6    31    32    1
     7    31    34    1
     8    32    33    1
     9    32    35    1
    10    33    44    1
    11    33    36    1
    12    44    45    1
    13    39    40    1
    14    39    41   am
    15    39    42    2
    16    41    43    1
    17    28    25    1
    18    34    37    1
    19    35    38    1
    20    45    46    1
    21    15    16   ar
    22    15    20   ar
    23    15     6    1
    24    16    17   ar
    25    16    21    2
    26    17    18   ar
    27    17    23    1
    28    18    19   ar
    29    18    22    2
    30    19    20   ar
    31     6     7    1
    32     6    11    1
    33     7     8    1
    34     7     9    1
    35     8    13    1
    36     9    10    1
    37     9    12    1
    38    10    11    1
    39    10     5    1
    40    12    14    1
    41     5     4    1
    42     4     1    1
    43     1     2    2
    44     1     3    1
    45     1    24    1
    46    24    25    1
    47    25    26    2
    48    25    27    1
@<TRIPOS>MOLECULE
UD1
 46 48 0 0 0
SMALL
GASTEIGER

@<TRIPOS>ATOM
      1 P          20.6238   71.0364   -1.4129 P.3     1  UNL1        0.2189
      2 O          20.7512   70.6306    0.0041 O.2     1  UNL1       -0.5170
      3 O          20.7197   72.6399   -1.5227 O.3     1  UNL1       -0.4371
      4 O          19.2015   70.5444   -1.9856 O.3     1  UNL1       -0.3112
      5 C          18.5703   71.6878   -2.5640 C.3     1  UNL1        0.1811
      6 C          17.0825   70.5669   -5.6393 C.3     1  UNL1        0.2383
      7 C          17.4249   69.2630   -4.8758 C.3     1  UNL1        0.1895
      8 O          16.4989   68.2244   -5.1971 O.3     1  UNL1       -0.3779
      9 C          17.2723   69.7023   -3.3963 C.3     1  UNL1        0.1713
     10 C          17.4049   71.2367   -3.4458 C.3     1  UNL1        0.1764
     11 O          17.6565   71.6023   -4.8134 O.3     1  UNL1       -0.3308
     12 O          15.9911   69.3205   -2.8906 O.3     1  UNL1       -0.3794
     13 H          16.7667   67.4442   -4.6921 H       1  UNL1        0.2106
     14 H          15.9470   68.3563   -2.9411 H       1  UNL1        0.2105
     15 N          17.6958   70.5671   -6.9679 N.ar    1  UNL1       -0.2551
     16 C          16.9185   70.4709   -8.0606 C.ar    1  UNL1        0.3323
     17 N          17.4550   70.4725   -9.2952 N.ar    1  UNL1       -0.2743
     18 C          18.7908   70.5621   -9.4555 C.ar    1  UNL1        0.2626
     19 C          19.6212   70.6579   -8.3136 C.ar    1  UNL1        0.0795
     20 C          19.0564   70.6593   -7.0872 C.ar    1  UNL1        0.0869
     21 O          15.7120   70.3895   -7.9323 O.2     1  UNL1       -0.2464
     22 O          19.2773   70.5589  -10.5712 O.2     1  UNL1       -0.2670
     23 H          16.8789   70.4072  -10.0724 H       1  UNL1        0.1734
     24 O          21.8084   70.3668   -2.2715 O.3     1  UNL1       -0.2703
     25 P          22.9463   71.4907   -2.4490 P.3     1  UNL1        0.2208
     26 O          24.1366   70.8902   -3.0906 O.2     1  UNL1       -0.5170
     27 O          23.3535   72.0759   -1.0054 O.3     1  UNL1       -0.4371
     28 O          22.3844   72.6841   -3.3712 O.3     1  UNL1       -0.2865
     29 C          23.5178   73.3100   -3.9752 C.3     1  UNL1        0.2611
     30 C          23.5333   74.7937   -3.6032 C.3     1  UNL1        0.1582
     31 C          22.2332   75.4455   -4.0874 C.3     1  UNL1        0.1625
     32 C          22.0634   75.1496   -5.5813 C.3     1  UNL1        0.1686
     33 C          22.1557   73.6385   -5.8037 C.3     1  UNL1        0.1760
     34 O          22.2994   76.8576   -3.8801 O.3     1  UNL1       -0.3801
     35 O          20.7882   75.6217   -6.0201 O.3     1  UNL1       -0.3794
     36 O          23.4385   73.1681   -5.3919 O.3     1  UNL1       -0.3263
     37 H          21.4635   77.2261   -4.1975 H       1  UNL1        0.2105
     38 H          20.7227   75.4149   -6.9632 H       1  UNL1        0.2105
     39 C          24.6909   75.5799   -1.6092 C.2     1  UNL1        0.2231
     40 C          24.8007   75.7228   -0.1126 C.3     1  UNL1        0.0946
     41 N          23.6402   74.9331   -2.1494 N.am    1  UNL1       -0.2994
     42 O          25.5491   76.0468   -2.3274 O.2     1  UNL1       -0.2751
     43 H          22.9534   74.5592   -1.5749 H       1  UNL1        0.1496
     44 C          21.9549   73.3297   -7.2888 C.3     1  UNL1        0.1693
     45 O          23.1819   72.8555   -7.8473 O.3     1  UNL1       -0.3794
     46 H          23.0122   72.6735   -8.7815 H       1  UNL1        0.2105
@<TRIPOS>BOND
     1    29    30    1
     2    29    28    1
     3    29    36    1
     4    30    31    1
     5    30    41    1
     6    31    32    1
     7    31    34    1
     8    32    33    1
     9    32    35    1
    10    33    44    1
    11    33    36    1
    12    44    45    1
    13    39    40    1
    14    39    41   am
    15    39    42    2
    16    41    43    1
    17    28    25    1
    18    34    37    1
    19    35    38    1
    20    45    46    1
    21    15    16   ar
    22    15    20   ar
    23    15     6    1
    24    16    17   ar
    25    16    21    2
    26    17    18   ar
    27    17    23    1
    28    18    19   ar
    29    18    22    2
    30    19    20   ar
    31     6     7    1
    32     6    11    1
    33     7     8    1
    34     7     9    1
    35     8    13    1
    36     9    10    1
    37     9    12    1
    38    10    11    1
    39    10     5    1
    40    12    14    1
    41     5     4    1
    42     4     1    1
    43     1     2    2
    44     1     3    1
    45     1    24    1
    46    24    25    1
    47    25    26    2
    48    25    27    1
@<TRIPOS>MOLECULE
UD1
 46 48 0 0 0
SMALL
GASTEIGER

@<TRIPOS>ATOM
      1 P          20.8855   71.5012   -1.8956 P.3     1  UNL1        0.2189
      2 O          20.7088   70.7360   -0.6418 O.2     1  UNL1       -0.5170
      3 O          20.3371   73.0012   -1.6908 O.3     1  UNL1       -0.4371
      4 O          20.0616   70.7867   -3.0803 O.3     1  UNL1       -0.3112
      5 C          18.9164   70.1794   -2.4802 C.3     1  UNL1        0.1811
      6 C          17.1786   70.4261   -5.6180 C.3     1  UNL1        0.2383
      7 C          16.9571   68.9610   -5.1658 C.3     1  UNL1        0.1895
      8 O          15.7027   68.4653   -5.6349 O.3     1  UNL1       -0.3779
      9 C          16.9567   69.0937   -3.6206 C.3     1  UNL1        0.1713
     10 C          17.6888   70.4241   -3.3589 C.3     1  UNL1        0.1764
     11 O          18.0969   70.9479   -4.6342 O.3     1  UNL1       -0.3308
     12 O          15.6178   69.1457   -3.1232 O.3     1  UNL1       -0.3794
     13 H          15.6268   67.5535   -5.3213 H       1  UNL1        0.2106
     14 H          15.1957   68.3120   -3.3697 H       1  UNL1        0.2105
     15 N          17.7726   70.4729   -6.9546 N.ar    1  UNL1       -0.2551
     16 C          16.9775   70.4473   -8.0384 C.ar    1  UNL1        0.3323
     17 N          17.4961   70.4931   -9.2798 N.ar    1  UNL1       -0.2743
     18 C          18.8313   70.5565   -9.4564 C.ar    1  UNL1        0.2626
     19 C          19.6802   70.5782   -8.3243 C.ar    1  UNL1        0.0795
     20 C          19.1332   70.5366   -7.0905 C.ar    1  UNL1        0.0869
     21 O          15.7713   70.3902   -7.8953 O.2     1  UNL1       -0.2464
     22 O          19.3016   70.5932  -10.5785 O.2     1  UNL1       -0.2670
     23 H          16.9075   70.4785  -10.0502 H       1  UNL1        0.1734
     24 O          22.4471   71.5475   -2.2805 O.3     1  UNL1       -0.2703
     25 P          22.5928   72.5770   -3.5086 P.3     1  UNL1        0.2208
     26 O          21.4159   72.4550   -4.3967 O.2     1  UNL1       -0.5170
     27 O          23.9290   72.2363   -4.3397 O.3     1  UNL1       -0.4371
     28 O          22.6838   74.0807   -2.9420 O.3     1  UNL1       -0.2865
     29 C          23.8083   74.1247   -2.0617 C.3     1  UNL1        0.2611
     30 C          23.5036   75.0722   -0.9001 C.3     1  UNL1        0.1582
     31 C          23.1982   76.4669   -1.4578 C.3     1  UNL1        0.1625
     32 C          24.3570   76.8972   -2.3635 C.3     1  UNL1        0.1686
     33 C          24.5953   75.8132   -3.4168 C.3     1  UNL1        0.1760
     34 O          23.0592   77.3940   -0.3795 O.3     1  UNL1       -0.3801
     35 O          24.0272   78.1285   -3.0091 O.3     1  UNL1       -0.3794
     36 O          24.9517   74.5887   -2.7764 O.3     1  UNL1       -0.3263
     37 H          22.8680   78.2556   -0.7748 H       1  UNL1        0.2105
     38 H          24.7816   78.3618   -3.5685 H       1  UNL1        0.2105
     39 C          22.5222   73.8528    0.9664 C.2     1  UNL1        0.2231
     40 C          21.3284   73.3429    1.7327 C.3     1  UNL1        0.0946
     41 N          22.3442   74.5771   -0.1552 N.am    1  UNL1       -0.2994
     42 O          23.6434   73.6104    1.3593 O.2     1  UNL1       -0.2751
     43 H          21.4471   74.7710   -0.4699 H       1  UNL1        0.1496
     44 C          25.7297   76.2481   -4.3469 C.3     1  UNL1        0.1693
     45 O          26.7333   75.2314   -4.3826 O.3     1  UNL1       -0.3794
     46 H          27.4277   75.5445   -4.9778 H       1  UNL1        0.2105
@<TRIPOS>BOND
     1    29    30    1
     2    29    28    1
     3    29    36    1
     4    30    31    1
     5    30    41    1
     6    31    32    1
     7    31    34    1
     8    32    33    1
     9    32    35    1
    10    33    44    1
    11    33    36    1
    12    44    45    1
    13    39    40    1
    14    39    41   am
    15    39    42    2
    16    41    43    1
    17    28    25    1
    18    34    37    1
    19    35    38    1
    20    45    46    1
    21    15    16   ar
    22    15    20   ar
    23    15     6    1
    24    16    17   ar
    25    16    21    2
    26    17    18   ar
    27    17    23    1
    28    18    19   ar
    29    18    22    2
    30    19    20   ar
    31     6     7    1
    32     6    11    1
    33     7     8    1
    34     7     9    1
    35     8    13    1
    36     9    10    1
    37     9    12    1
    38    10    11    1
    39    10     5    1
    40    12    14    1
    41     5     4    1
    42     4     1    1
    43     1     2    2
    44     1     3    1
    45     1    24    1
    46    24    25    1
    47    25    26    2
    48    25    27    1
@<TRIPOS>MOLECULE
UD1
 46 48 0 0 0
SMALL
GASTEIGER

@<TRIPOS>ATOM
      1 P          20.9418   70.7733   -3.5260 P.3     1  UNL1        0.2189
      2 O          21.8160   71.4255   -4.5256 O.2     1  UNL1       -0.5170
      3 O          20.3870   69.3847   -4.1230 O.3     1  UNL1       -0.4371
      4 O          19.7023   71.7426   -3.1841 O.3     1  UNL1       -0.3112
      5 C          18.6936   70.9286   -2.5839 C.3     1  UNL1        0.1811
      6 C          17.0166   70.5478   -5.7414 C.3     1  UNL1        0.2383
      7 C          17.0040   69.1280   -5.1215 C.3     1  UNL1        0.1895
      8 O          15.8492   68.3986   -5.5381 O.3     1  UNL1       -0.3779
      9 C          16.9457   69.4363   -3.6027 C.3     1  UNL1        0.1713
     10 C          17.4654   70.8829   -3.4941 C.3     1  UNL1        0.1764
     11 O          17.8226   71.3117   -4.8192 O.3     1  UNL1       -0.3308
     12 O          15.6020   69.3433   -3.1245 O.3     1  UNL1       -0.3794
     13 H          15.9018   67.5280   -5.1200 H       1  UNL1        0.2106
     14 H          15.3147   68.4328   -3.2743 H       1  UNL1        0.2105
     15 N          17.6299   70.5291   -7.0699 N.ar    1  UNL1       -0.2551
     16 C          16.8503   70.4566   -8.1627 C.ar    1  UNL1        0.3323
     17 N          17.3869   70.4417   -9.3973 N.ar    1  UNL1       -0.2743
     18 C          18.7248   70.4904   -9.5572 C.ar    1  UNL1        0.2626
     19 C          19.5575   70.5608   -8.4151 C.ar    1  UNL1        0.0795
     20 C          18.9927   70.5797   -7.1888 C.ar    1  UNL1        0.0869
     21 O          15.6419   70.4121   -8.0348 O.2     1  UNL1       -0.2464
     22 O          19.2112   70.4721  -10.6728 O.2     1  UNL1       -0.2670
     23 H          16.8093   70.3939  -10.1746 H       1  UNL1        0.1734
     24 O          21.7826   70.4842   -2.1850 O.3     1  UNL1       -0.2703
     25 P          22.9566   71.5832   -2.1264 P.3     1  UNL1        0.2208
     26 O          22.5107   72.8179   -2.8087 O.2     1  UNL1       -0.5170
     27 O          24.2682   71.0082   -2.8621 O.3     1  UNL1       -0.4371
     28 O          23.3064   71.9152   -0.5909 O.3     1  UNL1       -0.2865
     29 C          22.5507   71.0068    0.2122 C.3     1  UNL1        0.2611
     30 C          21.5626   71.7958    1.0732 C.3     1  UNL1        0.1582
     31 C          22.3403   72.7793    1.9549 C.3     1  UNL1        0.1625
     32 C          23.4072   72.0019    2.7331 C.3     1  UNL1        0.1686
     33 C          24.2582   71.1997    1.7464 C.3     1  UNL1        0.1760
     34 O          21.4444   73.4148    2.8687 O.3     1  UNL1       -0.3801
     35 O          24.2385   72.9174    3.4490 O.3     1  UNL1       -0.3794
     36 O          23.4355   70.2652    1.0491 O.3     1  UNL1       -0.3263
     37 H          21.9743   74.0234    3.4018 H       1  UNL1        0.2105
     38 H          24.8949   72.3873    3.9230 H       1  UNL1        0.2105
     39 C          20.8756   73.8308   -0.0760 C.2     1  UNL1        0.2231
     40 C          19.9262   74.5918   -0.9659 C.3     1  UNL1        0.0946
     41 N          20.6410   72.5353    0.2083 N.am    1  UNL1       -0.2994
     42 O          21.8506   74.3851    0.3848 O.2     1  UNL1       -0.2751
     43 H          19.8607   72.0916   -0.1601 H       1  UNL1        0.1496
     44 C          25.3477   70.4449    2.5107 C.3     1  UNL1        0.1693
     45 O          26.5514   71.2150    2.5098 O.3     1  UNL1       -0.3794
     46 H          27.2104   70.7048    2.9999 H       1  UNL1        0.2105
@<TRIPOS>BOND
     1    29    30    1
     2    29    28    1
     3    29    36    1
     4    30    31    1
     5    30    41    1
     6    31    32    1
     7    31    34    1
     8    32    33    1
     9    32    35    1
    10    33    44    1
    11    33    36    1
    12    44    45    1
    13    39    40    1
    14    39    41   am
    15    39    42    2
    16    41    43    1
    17    28    25    1
    18    34    37    1
    19    35    38    1
    20    45    46    1
    21    15    16   ar
    22    15    20   ar
    23    15     6    1
    24    16    17   ar
    25    16    21    2
    26    17    18   ar
    27    17    23    1
    28    18    19   ar
    29    18    22    2
    30    19    20   ar
    31     6     7    1
    32     6    11    1
    33     7     8    1
    34     7     9    1
    35     8    13    1
    36     9    10    1
    37     9    12    1
    38    10    11    1
    39    10     5    1
    40    12    14    1
    41     5     4    1
    42     4     1    1
    43     1     2    2
    44     1     3    1
    45     1    24    1
    46    24    25    1
    47    25    26    2
    48    25    27    1
@<TRIPOS>MOLECULE
UD1
 46 48 0 0 0
SMALL
GASTEIGER

@<TRIPOS>ATOM
      1 P          21.6277   71.0444   -2.7186 P.3     1  UNL1        0.2189
      2 O          22.9221   70.5120   -3.1979 O.2     1  UNL1       -0.5170
      3 O          21.4831   70.7629   -1.1398 O.3     1  UNL1       -0.4371
      4 O          20.4249   70.3175   -3.5046 O.3     1  UNL1       -0.3112
      5 C          19.2937   70.3292   -2.6325 C.3     1  UNL1        0.1811
      6 C          17.3821   70.4724   -5.6742 C.3     1  UNL1        0.2383
      7 C          17.1687   69.0305   -5.1492 C.3     1  UNL1        0.1895
      8 O          15.8835   68.5346   -5.5252 O.3     1  UNL1       -0.3779
      9 C          17.2585   69.2266   -3.6134 C.3     1  UNL1        0.1713
     10 C          18.0209   70.5557   -3.4496 C.3     1  UNL1        0.1764
     11 O          18.3617   71.0206   -4.7668 O.3     1  UNL1       -0.3308
     12 O          15.9511   69.3188   -3.0434 O.3     1  UNL1       -0.3794
     13 H          15.8143   67.6376   -5.1699 H       1  UNL1        0.2106
     14 H          15.5053   68.4820   -3.2305 H       1  UNL1        0.2105
     15 N          17.8991   70.4555   -7.0432 N.ar    1  UNL1       -0.2551
     16 C          17.0421   70.4326   -8.0788 C.ar    1  UNL1        0.3323
     17 N          17.4894   70.4206   -9.3484 N.ar    1  UNL1       -0.2743
     18 C          18.8135   70.4220   -9.6024 C.ar    1  UNL1        0.2626
     19 C          19.7268   70.4399   -8.5215 C.ar    1  UNL1        0.0795
     20 C          19.2510   70.4571   -7.2579 C.ar    1  UNL1        0.0869
     21 O          15.8449   70.4312   -7.8658 O.2     1  UNL1       -0.2464
     22 O          19.2191   70.4064  -10.7499 O.2     1  UNL1       -0.2670
     23 H          16.8570   70.4090  -10.0833 H       1  UNL1        0.1734
     24 O          21.5655   72.6291   -2.9901 O.3     1  UNL1       -0.2703
     25 P          23.0739   73.1789   -2.8813 P.3     1  UNL1        0.2208
     26 O          23.1208   74.5843   -3.3411 O.2     1  UNL1       -0.5170
     27 O          24.0410   72.2808   -3.8035 O.3     1  UNL1       -0.4371
     28 O          23.5669   73.0981   -1.3513 O.3     1  UNL1       -0.2865
     29 C          22.9000   74.1458   -0.6451 C.3     1  UNL1        0.2611
     30 C          23.9412   75.0742   -0.0174 C.3     1  UNL1        0.1582
     31 C          24.8295   74.2620    0.9317 C.3     1  UNL1        0.1625
     32 C          23.9324   73.5201    1.9281 C.3     1  UNL1        0.1686
     33 C          22.8936   72.7065    1.1534 C.3     1  UNL1        0.1760
     34 O          25.7077   75.1418    1.6360 O.3     1  UNL1       -0.3801
     35 O          24.7287   72.6436    2.7276 O.3     1  UNL1       -0.3794
     36 O          22.0785   73.5817    0.3749 O.3     1  UNL1       -0.3263
     37 H          26.2467   74.5904    2.2197 H       1  UNL1        0.2105
     38 H          24.1257   72.1972    3.3388 H       1  UNL1        0.2105
     39 C          25.1556   76.9554   -0.9768 C.2     1  UNL1        0.2231
     40 C          26.0034   77.5682   -2.0621 C.3     1  UNL1        0.0946
     41 N          24.7652   75.6697   -1.0713 N.am    1  UNL1       -0.2994
     42 O          24.8241   77.6201   -0.0184 O.2     1  UNL1       -0.2751
     43 H          25.0302   75.1377   -1.8382 H       1  UNL1        0.1496
     44 C          22.0127   71.9359    2.1390 C.3     1  UNL1        0.1693
     45 O          21.6723   70.6650    1.5813 O.3     1  UNL1       -0.3794
     46 H          21.1183   70.2132    2.2321 H       1  UNL1        0.2105
@<TRIPOS>BOND
     1    29    30    1
     2    29    28    1
     3    29    36    1
     4    30    31    1
     5    30    41    1
     6    31    32    1
     7    31    34    1
     8    32    33    1
     9    32    35    1
    10    33    44    1
    11    33    36    1
    12    44    45    1
    13    39    40    1
    14    39    41   am
    15    39    42    2
    16    41    43    1
    17    28    25    1
    18    34    37    1
    19    35    38    1
    20    45    46    1
    21    15    16   ar
    22    15    20   ar
    23    15     6    1
    24    16    17   ar
    25    16    21    2
    26    17    18   ar
    27    17    23    1
    28    18    19   ar
    29    18    22    2
    30    19    20   ar
    31     6     7    1
    32     6    11    1
    33     7     8    1
    34     7     9    1
    35     8    13    1
    36     9    10    1
    37     9    12    1
    38    10    11    1
    39    10     5    1
    40    12    14    1
    41     5     4    1
    42     4     1    1
    43     1     2    2
    44     1     3    1
    45     1    24    1
    46    24    25    1
    47    25    26    2
    48    25    27    1
@<TRIPOS>MOLECULE
UD1
 46 48 0 0 0
SMALL
GASTEIGER

@<TRIPOS>ATOM
      1 P          23.2308   72.0223   -3.4832 P.3     1  UNL1        0.2189
      2 O          24.1323   70.8846   -3.1971 O.2     1  UNL1       -0.5170
      3 O          23.6969   72.7477   -4.8430 O.3     1  UNL1       -0.4371
      4 O          23.2931   73.0748   -2.2661 O.3     1  UNL1       -0.3112
      5 C          22.2707   72.6997   -1.3418 C.3     1  UNL1        0.1811
      6 C          24.2465   71.7970    1.5233 C.3     1  UNL1        0.2383
      7 C          22.8316   72.0630    2.0956 C.3     1  UNL1        0.1895
      8 O          22.5831   71.2496    3.2427 O.3     1  UNL1       -0.3779
      9 C          21.9185   71.6462    0.9134 C.3     1  UNL1        0.1713
     10 C          22.8429   71.7188   -0.3173 C.3     1  UNL1        0.1764
     11 O          24.1270   72.1795    0.1365 O.3     1  UNL1       -0.3308
     12 O          21.4304   70.3163    1.1028 O.3     1  UNL1       -0.3794
     13 H          21.6908   71.4627    3.5493 H       1  UNL1        0.2106
     14 H          20.9106   70.3230    1.9176 H       1  UNL1        0.2105
     15 N          25.2452   72.6233    2.2024 N.ar    1  UNL1       -0.2551
     16 C          26.3894   72.0652    2.6344 C.ar    1  UNL1        0.3323
     17 N          27.3275   72.8018    3.2587 N.ar    1  UNL1       -0.2743
     18 C          27.1281   74.1184    3.4699 C.ar    1  UNL1        0.2626
     19 C          25.9254   74.7176    3.0256 C.ar    1  UNL1        0.0795
     20 C          25.0037   73.9565    2.3974 C.ar    1  UNL1        0.0869
     21 O          26.5839   70.8789    2.4513 O.2     1  UNL1       -0.2464
     22 O          27.9734   74.7844    4.0384 O.2     1  UNL1       -0.2670
     23 H          28.1490   72.3837    3.5594 H       1  UNL1        0.1734
     24 O          21.7238   71.4840   -3.6503 O.3     1  UNL1       -0.2703
     25 P          21.1197   72.1931   -4.9624 P.3     1  UNL1        0.2208
     26 O          21.8340   71.7022   -6.1613 O.2     1  UNL1       -0.5170
     27 O          21.3041   73.7882   -4.8443 O.3     1  UNL1       -0.4371
     28 O          19.5538   71.8434   -5.0901 O.3     1  UNL1       -0.2865
     29 C          19.4629   70.4459   -5.3725 C.3     1  UNL1        0.2611
     30 C          18.3418   70.2072   -6.3854 C.3     1  UNL1        0.1582
     31 C          17.0224   70.7289   -5.8050 C.3     1  UNL1        0.1625
     32 C          16.8053   70.0896   -4.4294 C.3     1  UNL1        0.1686
     33 C          18.0414   70.3399   -3.5629 C.3     1  UNL1        0.1760
     34 O          15.9447   70.3783   -6.6751 O.3     1  UNL1       -0.3801
     35 O          15.6581   70.6718   -3.8076 O.3     1  UNL1       -0.3794
     36 O          19.1843   69.7361   -4.1675 O.3     1  UNL1       -0.3263
     37 H          15.1366   70.7253   -6.2728 H       1  UNL1        0.2105
     38 H          15.5587   70.2423   -2.9461 H       1  UNL1        0.2105
     39 C          19.0305   70.2309   -8.7219 C.2     1  UNL1        0.2231
     40 C          19.3438   70.9630  -10.0018 C.3     1  UNL1        0.0946
     41 N          18.6457   70.9179   -7.6291 N.am    1  UNL1       -0.2994
     42 O          19.1256   69.0230   -8.6755 O.2     1  UNL1       -0.2751
     43 H          18.5697   71.8846   -7.6659 H       1  UNL1        0.1496
     44 C          17.8214   69.7333   -2.1756 C.3     1  UNL1        0.1693
     45 O          17.0492   68.5368   -2.2954 O.3     1  UNL1       -0.3794
     46 H          16.9336   68.1877   -1.4013 H       1  UNL1        0.2105
@<TRIPOS>BOND
     1    29    30    1
     2    29    28    1
     3    29    36    1
     4    30    31    1
     5    30    41    1
     6    31    32    1
     7    31    34    1
     8    32    33    1
     9    32    35    1
    10    33    44    1
    11    33    36    1
    12    44    45    1
    13    39    40    1
    14    39    41   am
    15    39    42    2
    16    41    43    1
    17    28    25    1
    18    34    37    1
    19    35    38    1
    20    45    46    1
    21    15    16   ar
    22    15    20   ar
    23    15     6    1
    24    16    17   ar
    25    16    21    2
    26    17    18   ar
    27    17    23    1
    28    18    19   ar
    29    18    22    2
    30    19    20   ar
    31     6     7    1
    32     6    11    1
    33     7     8    1
    34     7     9    1
    35     8    13    1
    36     9    10    1
    37     9    12    1
    38    10    11    1
    39    10     5    1
    40    12    14    1
    41     5     4    1
    42     4     1    1
    43     1     2    2
    44     1     3    1
    45     1    24    1
    46    24    25    1
    47    25    26    2
    48    25    27    1
@<TRIPOS>MOLECULE
UD1
 46 48 0 0 0
SMALL
GASTEIGER

@<TRIPOS>ATOM
      1 P          16.8057   69.7408   -2.7915 P.3     1  UNL1        0.2189
      2 O          17.1009   71.0402   -2.1488 O.2     1  UNL1       -0.5170
      3 O          16.1296   69.9951   -4.2306 O.3     1  UNL1       -0.4371
      4 O          15.7914   68.9021   -1.8638 O.3     1  UNL1       -0.3112
      5 C          15.0705   69.8507   -1.0759 C.3     1  UNL1        0.1811
      6 C          12.5619   68.1772    0.8820 C.3     1  UNL1        0.2383
      7 C          12.4197   69.6718    1.2644 C.3     1  UNL1        0.1895
      8 O          11.0689   69.9860    1.6051 O.3     1  UNL1       -0.3779
      9 C          12.8398   70.3849   -0.0472 C.3     1  UNL1        0.1713
     10 C          13.6609   69.3232   -0.8041 C.3     1  UNL1        0.1764
     11 O          13.7287   68.1557    0.0324 O.3     1  UNL1       -0.3308
     12 O          11.6868   70.7660   -0.8009 O.3     1  UNL1       -0.3794
     13 H          11.0487   70.9258    1.8324 H       1  UNL1        0.2106
     14 H          11.1853   71.3829   -0.2514 H       1  UNL1        0.2105
     15 N          12.7755   67.3544    2.0732 N.ar    1  UNL1       -0.2551
     16 C          12.6018   66.0232    2.0033 C.ar    1  UNL1        0.3323
     17 N          12.7951   65.2413    3.0820 N.ar    1  UNL1       -0.2743
     18 C          13.1597   65.7867    4.2599 C.ar    1  UNL1        0.2626
     19 C          13.3402   67.1876    4.3491 C.ar    1  UNL1        0.0795
     20 C          13.1448   67.9477    3.2503 C.ar    1  UNL1        0.0869
     21 O          12.2733   65.5164    0.9479 O.2     1  UNL1       -0.2464
     22 O          13.3300   65.0814    5.2371 O.2     1  UNL1       -0.2670
     23 H          12.6700   64.2823    3.0123 H       1  UNL1        0.1734
     24 O          18.1719   68.9118   -2.9783 O.3     1  UNL1       -0.2703
     25 P          19.3004   69.9694   -3.4224 P.3     1  UNL1        0.2208
     26 O          20.4909   69.2424   -3.9154 O.2     1  UNL1       -0.5170
     27 O          19.7126   70.8778   -2.1586 O.3     1  UNL1       -0.4371
     28 O          18.7240   70.9113   -4.5933 O.3     1  UNL1       -0.2865
     29 C          19.4917   70.6323   -5.7654 C.3     1  UNL1        0.2611
     30 C          20.2797   71.8820   -6.1623 C.3     1  UNL1        0.1582
     31 C          19.2995   73.0323   -6.4185 C.3     1  UNL1        0.1625
     32 C          18.2554   72.5683   -7.4395 C.3     1  UNL1        0.1686
     33 C          17.6178   71.2683   -6.9447 C.3     1  UNL1        0.1760
     34 O          20.0092   74.1604   -6.9333 O.3     1  UNL1       -0.3801
     35 O          17.2483   73.5717   -7.5830 O.3     1  UNL1       -0.3794
     36 O          18.6167   70.2559   -6.8265 O.3     1  UNL1       -0.3263
     37 H          19.3560   74.8585   -7.0793 H       1  UNL1        0.2105
     38 H          16.6127   73.2392   -8.2325 H       1  UNL1        0.2105
     39 C          22.4789   72.5475   -5.3530 C.2     1  UNL1        0.2231
     40 C          23.4202   72.9246   -4.2377 C.3     1  UNL1        0.0946
     41 N          21.1943   72.2489   -5.0792 N.am    1  UNL1       -0.2994
     42 O          22.8781   72.5121   -6.4974 O.2     1  UNL1       -0.2751
     43 H          20.8747   72.2769   -4.1634 H       1  UNL1        0.1496
     44 C          16.5502   70.8135   -7.9419 C.3     1  UNL1        0.1693
     45 O          15.5867   69.9992   -7.2705 O.3     1  UNL1       -0.3794
     46 H          14.9340   69.7344   -7.9327 H       1  UNL1        0.2105
@<TRIPOS>BOND
     1    29    30    1
     2    29    28    1
     3    29    36    1
     4    30    31    1
     5    30    41    1
     6    31    32    1
     7    31    34    1
     8    32    33    1
     9    32    35    1
    10    33    44    1
    11    33    36    1
    12    44    45    1
    13    39    40    1
    14    39    41   am
    15    39    42    2
    16    41    43    1
    17    28    25    1
    18    34    37    1
    19    35    38    1
    20    45    46    1
    21    15    16   ar
    22    15    20   ar
    23    15     6    1
    24    16    17   ar
    25    16    21    2
    26    17    18   ar
    27    17    23    1
    28    18    19   ar
    29    18    22    2
    30    19    20   ar
    31     6     7    1
    32     6    11    1
    33     7     8    1
    34     7     9    1
    35     8    13    1
    36     9    10    1
    37     9    12    1
    38    10    11    1
    39    10     5    1
    40    12    14    1
    41     5     4    1
    42     4     1    1
    43     1     2    2
    44     1     3    1
    45     1    24    1
    46    24    25    1
    47    25    26    2
    48    25    27    1
@<TRIPOS>MOLECULE
UD1
 46 48 0 0 0
SMALL
GASTEIGER

@<TRIPOS>ATOM
      1 P          21.7178   72.6446   -6.4871 P.3     1  UNL1        0.2189
      2 O          21.0057   73.6707   -7.2800 O.2     1  UNL1       -0.5170
      3 O          23.3063   72.8753   -6.6136 O.3     1  UNL1       -0.4371
      4 O          21.3431   71.1811   -7.0444 O.3     1  UNL1       -0.3112
      5 C          20.5633   71.3750   -8.2254 C.3     1  UNL1        0.1811
      6 C          17.4653   70.0699   -6.9501 C.3     1  UNL1        0.2383
      7 C          17.0393   71.0896   -8.0358 C.3     1  UNL1        0.1895
      8 O          15.8115   70.6980   -8.6512 O.3     1  UNL1       -0.3779
      9 C          18.2153   71.0032   -9.0431 C.3     1  UNL1        0.1713
     10 C          19.3740   70.4134   -8.2161 C.3     1  UNL1        0.1764
     11 O          18.8966   70.2391   -6.8711 O.3     1  UNL1       -0.3308
     12 O          17.8793   70.1403  -10.1318 O.3     1  UNL1       -0.3794
     13 H          15.6029   71.3713   -9.3134 H       1  UNL1        0.2106
     14 H          17.1130   70.5316  -10.5721 H       1  UNL1        0.2105
     15 N          16.8367   70.3847   -5.6666 N.ar    1  UNL1       -0.2551
     16 C          16.4133   69.3881   -4.8699 C.ar    1  UNL1        0.3323
     17 N          15.8352   69.6481   -3.6823 N.ar    1  UNL1       -0.2743
     18 C          15.6625   70.9218   -3.2750 C.ar    1  UNL1        0.2626
     19 C          16.0982   71.9808   -4.1067 C.ar    1  UNL1        0.0795
     20 C          16.6798   71.6915   -5.2905 C.ar    1  UNL1        0.0869
     21 O          16.5620   68.2341   -5.2233 O.2     1  UNL1       -0.2464
     22 O          15.1356   71.1582   -2.2036 O.2     1  UNL1       -0.2670
     23 H          15.5400   68.9168   -3.1182 H       1  UNL1        0.1734
     24 O          21.2791   72.7592   -4.9433 O.3     1  UNL1       -0.2703
     25 P          22.5498   73.3337   -4.1404 P.3     1  UNL1        0.2208
     26 O          22.8489   74.7054   -4.6069 O.2     1  UNL1       -0.5170
     27 O          23.8253   72.3875   -4.4051 O.3     1  UNL1       -0.4371
     28 O          22.2224   73.3622   -2.5648 O.3     1  UNL1       -0.2865
     29 C          23.2059   72.5491   -1.9223 C.3     1  UNL1        0.2611
     30 C          22.5216   71.3399   -1.2823 C.3     1  UNL1        0.1582
     31 C          21.4803   71.8308   -0.2702 C.3     1  UNL1        0.1625
     32 C          22.1642   72.7883    0.7114 C.3     1  UNL1        0.1686
     33 C          22.8729   73.8901   -0.0791 C.3     1  UNL1        0.1760
     34 O          20.9408   70.7152    0.4411 O.3     1  UNL1       -0.3801
     35 O          21.1838   73.3709    1.5722 O.3     1  UNL1       -0.3794
     36 O          23.8718   73.3139   -0.9198 O.3     1  UNL1       -0.3263
     37 H          20.2918   71.0689    1.0648 H       1  UNL1        0.2105
     38 H          21.6561   73.9657    2.1719 H       1  UNL1        0.2105
     39 C          20.5467   70.7119   -2.5627 C.2     1  UNL1        0.2231
     40 C          19.8669   69.8929   -3.6302 C.3     1  UNL1        0.0946
     41 N          21.8609   70.5449   -2.3195 N.am    1  UNL1       -0.2994
     42 O          19.9102   71.5209   -1.9219 O.2     1  UNL1       -0.2751
     43 H          22.3704   69.8974   -2.8320 H       1  UNL1        0.1496
     44 C          23.5322   74.8703    0.8933 C.3     1  UNL1        0.1693
     45 O          22.6023   75.8997    1.2363 O.3     1  UNL1       -0.3794
     46 H          23.0564   76.4944    1.8485 H       1  UNL1        0.2105
@<TRIPOS>BOND
     1    29    30    1
     2    29    28    1
     3    29    36    1
     4    30    31    1
     5    30    41    1
     6    31    32    1
     7    31    34    1
     8    32    33    1
     9    32    35    1
    10    33    44    1
    11    33    36    1
    12    44    45    1
    13    39    40    1
    14    39    41   am
    15    39    42    2
    16    41    43    1
    17    28    25    1
    18    34    37    1
    19    35    38    1
    20    45    46    1
    21    15    16   ar
    22    15    20   ar
    23    15     6    1
    24    16    17   ar
    25    16    21    2
    26    17    18   ar
    27    17    23    1
    28    18    19   ar
    29    18    22    2
    30    19    20   ar
    31     6     7    1
    32     6    11    1
    33     7     8    1
    34     7     9    1
    35     8    13    1
    36     9    10    1
    37     9    12    1
    38    10    11    1
    39    10     5    1
    40    12    14    1
    41     5     4    1
    42     4     1    1
    43     1     2    2
    44     1     3    1
    45     1    24    1
    46    24    25    1
    47    25    26    2
    48    25    27    1
@<TRIPOS>MOLECULE
UD1
 46 48 0 0 0
SMALL
GASTEIGER

@<TRIPOS>ATOM
      1 P          19.5038   71.8942   -1.3125 P.3     1  UNL1        0.2189
      2 O          19.1284   72.8548   -0.2518 O.2     1  UNL1       -0.5170
      3 O          20.2366   72.6789   -2.5124 O.3     1  UNL1       -0.4371
      4 O          18.1791   71.1720   -1.8750 O.3     1  UNL1       -0.3112
      5 C          17.5215   72.1153   -2.7224 C.3     1  UNL1        0.1811
      6 C          16.6660   70.5107   -5.8241 C.3     1  UNL1        0.2383
      7 C          17.1634   69.3587   -4.9154 C.3     1  UNL1        0.1895
      8 O          16.5056   68.1329   -5.2378 O.3     1  UNL1       -0.3779
      9 C          16.7497   69.8545   -3.5053 C.3     1  UNL1        0.1713
     10 C          16.5829   71.3766   -3.6777 C.3     1  UNL1        0.1764
     11 O          16.9210   71.6945   -5.0385 O.3     1  UNL1       -0.3308
     12 O          15.5172   69.2518   -3.1047 O.3     1  UNL1       -0.3794
     13 H          16.8587   67.4598   -4.6397 H       1  UNL1        0.2106
     14 H          15.6701   68.2980   -3.0731 H       1  UNL1        0.2105
     15 N          17.4233   70.5488   -7.0757 N.ar    1  UNL1       -0.2551
     16 C          16.7692   70.5543   -8.2503 C.ar    1  UNL1        0.3323
     17 N          17.4398   70.5930   -9.4169 N.ar    1  UNL1       -0.2743
     18 C          18.7879   70.6178   -9.4252 C.ar    1  UNL1        0.2626
     19 C          19.4892   70.6064   -8.1961 C.ar    1  UNL1        0.0795
     20 C          18.7915   70.5728   -7.0405 C.ar    1  UNL1        0.0869
     21 O          15.5535   70.5323   -8.2591 O.2     1  UNL1       -0.2464
     22 O          19.3953   70.6480  -10.4795 O.2     1  UNL1       -0.2670
     23 H          16.9517   70.6012  -10.2547 H       1  UNL1        0.1734
     24 O          20.5015   70.7874   -0.7056 O.3     1  UNL1       -0.2703
     25 P          21.4117   71.5338    0.3916 P.3     1  UNL1        0.2208
     26 O          22.5162   70.6409    0.8060 O.2     1  UNL1       -0.5170
     27 O          20.5118   71.9040    1.6744 O.3     1  UNL1       -0.4371
     28 O          22.0208   72.8821   -0.2420 O.3     1  UNL1       -0.2865
     29 C          23.4297   72.6814   -0.3677 C.3     1  UNL1        0.2611
     30 C          24.1662   73.8806    0.2318 C.3     1  UNL1        0.1582
     31 C          23.7332   75.1537   -0.5039 C.3     1  UNL1        0.1625
     32 C          23.9418   74.9457   -2.0077 C.3     1  UNL1        0.1686
     33 C          23.2195   73.6675   -2.4389 C.3     1  UNL1        0.1760
     34 O          24.5222   76.2574   -0.0559 O.3     1  UNL1       -0.3801
     35 O          23.4089   76.0619   -2.7230 O.3     1  UNL1       -0.3794
     36 O          23.7680   72.5468   -1.7464 O.3     1  UNL1       -0.3263
     37 H          24.2168   77.0351   -0.5430 H       1  UNL1        0.2105
     38 H          23.5603   75.8898   -3.6632 H       1  UNL1        0.2105
     39 C          24.4749   73.2367    2.5608 C.2     1  UNL1        0.2231
     40 C          24.1327   73.3582    4.0239 C.3     1  UNL1        0.0946
     41 N          23.8345   73.9986    1.6532 N.am    1  UNL1       -0.2994
     42 O          25.3264   72.4524    2.2004 O.2     1  UNL1       -0.2751
     43 H          23.1529   74.6262    1.9414 H       1  UNL1        0.1496
     44 C          23.3944   73.4680   -3.9458 C.3     1  UNL1        0.1693
     45 O          24.6605   72.8568   -4.2019 O.3     1  UNL1       -0.3794
     46 H          24.7307   72.7494   -5.1601 H       1  UNL1        0.2105
@<TRIPOS>BOND
     1    29    30    1
     2    29    28    1
     3    29    36    1
     4    30    31    1
     5    30    41    1
     6    31    32    1
     7    31    34    1
     8    32    33    1
     9    32    35    1
    10    33    44    1
    11    33    36    1
    12    44    45    1
    13    39    40    1
    14    39    41   am
    15    39    42    2
    16    41    43    1
    17    28    25    1
    18    34    37    1
    19    35    38    1
    20    45    46    1
    21    15    16   ar
    22    15    20   ar
    23    15     6    1
    24    16    17   ar
    25    16    21    2
    26    17    18   ar
    27    17    23    1
    28    18    19   ar
    29    18    22    2
    30    19    20   ar
    31     6     7    1
    32     6    11    1
    33     7     8    1
    34     7     9    1
    35     8    13    1
    36     9    10    1
    37     9    12    1
    38    10    11    1
    39    10     5    1
    40    12    14    1
    41     5     4    1
    42     4     1    1
    43     1     2    2
    44     1     3    1
    45     1    24    1
    46    24    25    1
    47    25    26    2
    48    25    27    1
@<TRIPOS>MOLECULE
UD1
 46 48 0 0 0
SMALL
GASTEIGER

@<TRIPOS>ATOM
      1 P          16.2477   69.9763   -2.6939 P.3     1  UNL1        0.2189
      2 O          16.1883   69.5977   -4.1229 O.2     1  UNL1       -0.5170
      3 O          16.6721   68.6947   -1.8164 O.3     1  UNL1       -0.4371
      4 O          14.8005   70.4968   -2.2167 O.3     1  UNL1       -0.3112
      5 C          14.6708   70.1512   -0.8367 C.3     1  UNL1        0.1811
      6 C          12.3795   68.1045    1.0308 C.3     1  UNL1        0.2383
      7 C          11.9885   69.5583    1.3970 C.3     1  UNL1        0.1895
      8 O          10.5925   69.6559    1.6813 O.3     1  UNL1       -0.3779
      9 C          12.3440   70.3280    0.0984 C.3     1  UNL1        0.1713
     10 C          13.3519   69.4084   -0.6178 C.3     1  UNL1        0.1764
     11 O          13.5685   68.2666    0.2287 O.3     1  UNL1       -0.3308
     12 O          11.1769   70.5224   -0.7034 O.3     1  UNL1       -0.3794
     13 H          10.4154   70.5810    1.9012 H       1  UNL1        0.2106
     14 H          10.5627   71.0529   -0.1786 H       1  UNL1        0.2105
     15 N          12.6714   67.3262    2.2351 N.ar    1  UNL1       -0.2551
     16 C          12.5284   65.9896    2.2156 C.ar    1  UNL1        0.3323
     17 N          12.7935   65.2480    3.3074 N.ar    1  UNL1       -0.2743
     18 C          13.2008   65.8400    4.4483 C.ar    1  UNL1        0.2626
     19 C          13.3498   67.2469    4.4846 C.ar    1  UNL1        0.0795
     20 C          13.0821   67.9660    3.3735 C.ar    1  UNL1        0.0869
     21 O          12.1619   65.4411    1.1940 O.2     1  UNL1       -0.2464
     22 O          13.4362   65.1710    5.4374 O.2     1  UNL1       -0.2670
     23 H          12.6895   64.2846    3.2740 H       1  UNL1        0.1734
     24 O          17.3320   71.1480   -2.4937 O.3     1  UNL1       -0.2703
     25 P          18.7740   70.5051   -2.8047 P.3     1  UNL1        0.2208
     26 O          18.5979   69.1476   -3.3660 O.2     1  UNL1       -0.5170
     27 O          19.6274   70.4152   -1.4424 O.3     1  UNL1       -0.4371
     28 O          19.5565   71.4274   -3.8666 O.3     1  UNL1       -0.2865
     29 C          20.5941   70.6225   -4.4292 C.3     1  UNL1        0.2611
     30 C          21.9390   71.3259   -4.2375 C.3     1  UNL1        0.1582
     31 C          21.8887   72.6980   -4.9190 C.3     1  UNL1        0.1625
     32 C          21.4552   72.5059   -6.3761 C.3     1  UNL1        0.1686
     33 C          20.1451   71.7160   -6.4064 C.3     1  UNL1        0.1760
     34 O          23.1831   73.3014   -4.8765 O.3     1  UNL1       -0.3801
     35 O          21.2599   73.7819   -6.9888 O.3     1  UNL1       -0.3794
     36 O          20.3436   70.4304   -5.8198 O.3     1  UNL1       -0.3263
     37 H          23.1055   74.1601   -5.3146 H       1  UNL1        0.2105
     38 H          20.9878   73.6148   -7.9023 H       1  UNL1        0.2105
     39 C          23.4260   71.2332   -2.3102 C.2     1  UNL1        0.2231
     40 C          23.6965   71.4099   -0.8378 C.3     1  UNL1        0.0946
     41 N          22.2024   71.4978   -2.8073 N.am    1  UNL1       -0.2994
     42 O          24.3098   70.8521   -3.0475 O.2     1  UNL1       -0.2751
     43 H          21.4948   71.8026   -2.2174 H       1  UNL1        0.1496
     44 C          19.6864   71.5468   -7.8562 C.3     1  UNL1        0.1693
     45 O          20.7892   71.7778   -8.7352 O.3     1  UNL1       -0.3794
     46 H          20.4580   71.6618   -9.6360 H       1  UNL1        0.2105
@<TRIPOS>BOND
     1    29    30    1
     2    29    28    1
     3    29    36    1
     4    30    31    1
     5    30    41    1
     6    31    32    1
     7    31    34    1
     8    32    33    1
     9    32    35    1
    10    33    44    1
    11    33    36    1
    12    44    45    1
    13    39    40    1
    14    39    41   am
    15    39    42    2
    16    41    43    1
    17    28    25    1
    18    34    37    1
    19    35    38    1
    20    45    46    1
    21    15    16   ar
    22    15    20   ar
    23    15     6    1
    24    16    17   ar
    25    16    21    2
    26    17    18   ar
    27    17    23    1
    28    18    19   ar
    29    18    22    2
    30    19    20   ar
    31     6     7    1
    32     6    11    1
    33     7     8    1
    34     7     9    1
    35     8    13    1
    36     9    10    1
    37     9    12    1
    38    10    11    1
    39    10     5    1
    40    12    14    1
    41     5     4    1
    42     4     1    1
    43     1     2    2
    44     1     3    1
    45     1    24    1
    46    24    25    1
    47    25    26    2
    48    25    27    1
@<TRIPOS>MOLECULE
UD1
 46 48 0 0 0
SMALL
GASTEIGER

@<TRIPOS>ATOM
      1 P          15.6860   69.8749   -2.0162 P.3     1  UNL1        0.2189
      2 O          16.7554   69.0369   -1.4307 O.2     1  UNL1       -0.5170
      3 O          15.9274   71.4142   -1.6101 O.3     1  UNL1       -0.4371
      4 O          14.2569   69.3904   -1.4542 O.3     1  UNL1       -0.3112
      5 C          14.4820   68.8734   -0.1418 C.3     1  UNL1        0.1811
      6 C          12.4887   66.9890    2.1826 C.3     1  UNL1        0.2383
      7 C          11.7811   68.3641    2.0902 C.3     1  UNL1        0.1895
      8 O          10.3739   68.2295    2.2929 O.3     1  UNL1       -0.3779
      9 C          12.0916   68.7928    0.6324 C.3     1  UNL1        0.1713
     10 C          13.3253   67.9525    0.2499 C.3     1  UNL1        0.1764
     11 O          13.6891   67.1739    1.4025 O.3     1  UNL1       -0.3308
     12 O          10.9877   68.4910   -0.2238 O.3     1  UNL1       -0.3794
     13 H           9.9948   69.1166    2.2237 H       1  UNL1        0.2106
     14 H          10.2338   69.0003    0.1025 H       1  UNL1        0.2105
     15 N          12.8199   66.6676    3.5713 N.ar    1  UNL1       -0.2551
     16 C          13.0747   67.6595    4.4422 C.ar    1  UNL1        0.3323
     17 N          13.3782   67.3934    5.7264 N.ar    1  UNL1       -0.2743
     18 C          13.4407   66.1181    6.1597 C.ar    1  UNL1        0.2626
     19 C          13.1806   65.0640    5.2520 C.ar    1  UNL1        0.0795
     20 C          12.8733   65.3594    3.9707 C.ar    1  UNL1        0.0869
     21 O          13.0222   68.8148    4.0665 O.2     1  UNL1       -0.2464
     22 O          13.7196   65.8762    7.3194 O.2     1  UNL1       -0.2670
     23 H          13.5544   68.1215    6.3421 H       1  UNL1        0.1734
     24 O          15.7088   69.7318   -3.6187 O.3     1  UNL1       -0.2703
     25 P          17.2449   69.5111   -4.0439 P.3     1  UNL1        0.2208
     26 O          17.6688   68.1440   -3.6694 O.2     1  UNL1       -0.5170
     27 O          18.1723   70.5865   -3.2852 O.3     1  UNL1       -0.4371
     28 O          17.3955   69.7026   -5.6349 O.3     1  UNL1       -0.2865
     29 C          17.9023   71.0213   -5.8475 C.3     1  UNL1        0.2611
     30 C          16.8409   71.8615   -6.5599 C.3     1  UNL1        0.1582
     31 C          16.4874   71.1960   -7.8946 C.3     1  UNL1        0.1625
     32 C          17.7795   70.9696   -8.6867 C.3     1  UNL1        0.1686
     33 C          18.7691   70.1938   -7.8148 C.3     1  UNL1        0.1760
     34 O          15.6101   72.0457   -8.6359 O.3     1  UNL1       -0.3801
     35 O          17.4907   70.2191   -9.8678 O.3     1  UNL1       -0.3794
     36 O          19.0809   70.9529   -6.6473 O.3     1  UNL1       -0.3263
     37 H          15.4139   71.5892   -9.4656 H       1  UNL1        0.2105
     38 H          18.3297   70.0989  -10.3350 H       1  UNL1        0.2105
     39 C          15.2198   73.1465   -5.2733 C.2     1  UNL1        0.2231
     40 C          13.9864   73.2361   -4.4113 C.3     1  UNL1        0.0946
     41 N          15.6425   71.9492   -5.7229 N.am    1  UNL1       -0.2994
     42 O          15.8322   74.1524   -5.5618 O.2     1  UNL1       -0.2751
     43 H          15.1527   71.1440   -5.4920 H       1  UNL1        0.1496
     44 C          20.0513   69.9341   -8.6084 C.3     1  UNL1        0.1693
     45 O          21.1479   69.7798   -7.7052 O.3     1  UNL1       -0.3794
     46 H          21.9340   69.6186   -8.2444 H       1  UNL1        0.2105
@<TRIPOS>BOND
     1    29    30    1
     2    29    28    1
     3    29    36    1
     4    30    31    1
     5    30    41    1
     6    31    32    1
     7    31    34    1
     8    32    33    1
     9    32    35    1
    10    33    44    1
    11    33    36    1
    12    44    45    1
    13    39    40    1
    14    39    41   am
    15    39    42    2
    16    41    43    1
    17    28    25    1
    18    34    37    1
    19    35    38    1
    20    45    46    1
    21    15    16   ar
    22    15    20   ar
    23    15     6    1
    24    16    17   ar
    25    16    21    2
    26    17    18   ar
    27    17    23    1
    28    18    19   ar
    29    18    22    2
    30    19    20   ar
    31     6     7    1
    32     6    11    1
    33     7     8    1
    34     7     9    1
    35     8    13    1
    36     9    10    1
    37     9    12    1
    38    10    11    1
    39    10     5    1
    40    12    14    1
    41     5     4    1
    42     4     1    1
    43     1     2    2
    44     1     3    1
    45     1    24    1
    46    24    25    1
    47    25    26    2
    48    25    27    1
@<TRIPOS>MOLECULE
UD1
 46 48 0 0 0
SMALL
GASTEIGER

@<TRIPOS>ATOM
      1 P          22.7748   72.3583   -3.8281 P.3     1  UNL1        0.2189
      2 O          24.1181   72.5550   -4.4160 O.2     1  UNL1       -0.5170
      3 O          22.1906   73.7764   -3.3378 O.3     1  UNL1       -0.4371
      4 O          22.8813   71.3590   -2.5699 O.3     1  UNL1       -0.3112
      5 C          22.9885   72.1742   -1.4019 C.3     1  UNL1        0.1811
      6 C          24.4852   71.4986    1.7967 C.3     1  UNL1        0.2383
      7 C          23.0478   71.9690    2.1323 C.3     1  UNL1        0.1895
      8 O          22.5725   71.3476    3.3270 O.3     1  UNL1       -0.3779
      9 C          22.2479   71.4783    0.8975 C.3     1  UNL1        0.1713
     10 C          23.3197   71.2958   -0.1944 C.3     1  UNL1        0.1764
     11 O          24.5803   71.6955    0.3698 O.3     1  UNL1       -0.3308
     12 O          21.5987   70.2374    1.1828 O.3     1  UNL1       -0.3794
     13 H          21.6777   71.6815    3.4796 H       1  UNL1        0.2106
     14 H          20.9860   70.4038    1.9115 H       1  UNL1        0.2105
     15 N          25.4762   72.3159    2.4977 N.ar    1  UNL1       -0.2551
     16 C          26.7054   71.8220    2.7268 C.ar    1  UNL1        0.3323
     17 N          27.6380   72.5529    3.3658 N.ar    1  UNL1       -0.2743
     18 C          27.3484   73.7971    3.7969 C.ar    1  UNL1        0.2626
     19 C          26.0563   74.3272    3.5676 C.ar    1  UNL1        0.0795
     20 C          25.1416   73.5745    2.9195 C.ar    1  UNL1        0.0869
     21 O          26.9818   70.7014    2.3440 O.2     1  UNL1       -0.2464
     22 O          28.1893   74.4570    4.3789 O.2     1  UNL1       -0.2670
     23 H          28.5210   72.1825    3.5183 H       1  UNL1        0.1734
     24 O          21.7924   71.7255   -4.9341 O.3     1  UNL1       -0.2703
     25 P          20.5422   71.0964   -4.1399 P.3     1  UNL1        0.2208
     26 O          19.9180   72.1397   -3.2969 O.2     1  UNL1       -0.5170
     27 O          21.0518   69.8873   -3.2068 O.3     1  UNL1       -0.4371
     28 O          19.4605   70.5398   -5.1937 O.3     1  UNL1       -0.2865
     29 C          18.8007   71.6781   -5.7506 C.3     1  UNL1        0.2611
     30 C          17.3100   71.3718   -5.9061 C.3     1  UNL1        0.1582
     31 C          17.1416   70.1499   -6.8161 C.3     1  UNL1        0.1625
     32 C          17.8946   70.4065   -8.1257 C.3     1  UNL1        0.1686
     33 C          19.3422   70.7827   -7.8028 C.3     1  UNL1        0.1760
     34 O          15.7545   69.9442   -7.0898 O.3     1  UNL1       -0.3801
     35 O          17.8741   69.2246   -8.9283 O.3     1  UNL1       -0.3794
     36 O          19.3674   71.9783   -7.0242 O.3     1  UNL1       -0.3263
     37 H          15.6950   69.1678   -7.6633 H       1  UNL1        0.2105
     38 H          18.3585   69.4296   -9.7406 H       1  UNL1        0.2105
     39 C          16.5931   69.8158   -4.1744 C.2     1  UNL1        0.2231
     40 C          15.9938   69.5252   -2.8221 C.3     1  UNL1        0.0946
     41 N          16.7283   71.0891   -4.5923 N.am    1  UNL1       -0.2994
     42 O          16.9531   68.9030   -4.8868 O.2     1  UNL1       -0.2751
     43 H          16.4401   71.8196   -4.0225 H       1  UNL1        0.1496
     44 C          20.1117   71.0095   -9.1058 C.3     1  UNL1        0.1693
     45 O          19.1872   71.2192  -10.1751 O.3     1  UNL1       -0.3794
     46 H          19.7117   71.3574  -10.9754 H       1  UNL1        0.2105
@<TRIPOS>BOND
     1    29    30    1
     2    29    28    1
     3    29    36    1
     4    30    31    1
     5    30    41    1
     6    31    32    1
     7    31    34    1
     8    32    33    1
     9    32    35    1
    10    33    44    1
    11    33    36    1
    12    44    45    1
    13    39    40    1
    14    39    41   am
    15    39    42    2
    16    41    43    1
    17    28    25    1
    18    34    37    1
    19    35    38    1
    20    45    46    1
    21    15    16   ar
    22    15    20   ar
    23    15     6    1
    24    16    17   ar
    25    16    21    2
    26    17    18   ar
    27    17    23    1
    28    18    19   ar
    29    18    22    2
    30    19    20   ar
    31     6     7    1
    32     6    11    1
    33     7     8    1
    34     7     9    1
    35     8    13    1
    36     9    10    1
    37     9    12    1
    38    10    11    1
    39    10     5    1
    40    12    14    1
    41     5     4    1
    42     4     1    1
    43     1     2    2
    44     1     3    1
    45     1    24    1
    46    24    25    1
    47    25    26    2
    48    25    27    1
@<TRIPOS>MOLECULE
UD1
 46 48 0 0 0
SMALL
GASTEIGER

@<TRIPOS>ATOM
      1 P          22.1526   71.6158   -0.0352 P.3     1  UNL1        0.2189
      2 O          23.3850   70.9877   -0.5601 O.2     1  UNL1       -0.5170
      3 O          21.2996   70.5225    0.7831 O.3     1  UNL1       -0.4371
      4 O          21.2713   72.1743   -1.2616 O.3     1  UNL1       -0.3112
      5 C          20.5358   71.0657   -1.7814 C.3     1  UNL1        0.1811
      6 C          20.3659   70.5602   -5.3371 C.3     1  UNL1        0.2383
      7 C          20.9077   72.0026   -5.1755 C.3     1  UNL1        0.1895
      8 O          21.7717   72.3484   -6.2587 O.3     1  UNL1       -0.3779
      9 C          21.6993   71.9060   -3.8454 C.3     1  UNL1        0.1713
     10 C          21.1045   70.6692   -3.1447 C.3     1  UNL1        0.1764
     11 O          20.0529   70.1637   -3.9849 O.3     1  UNL1       -0.3308
     12 O          23.0925   71.7204   -4.1046 O.3     1  UNL1       -0.3794
     13 H          22.0728   73.2535   -6.0989 H       1  UNL1        0.2106
     14 H          23.3912   72.4976   -4.5954 H       1  UNL1        0.2105
     15 N          19.1629   70.5475   -6.1702 N.ar    1  UNL1       -0.2551
     16 C          19.2732   70.3596   -7.4968 C.ar    1  UNL1        0.3323
     17 N          18.1835   70.3393   -8.2870 N.ar    1  UNL1       -0.2743
     18 C          16.9565   70.5177   -7.7571 C.ar    1  UNL1        0.2626
     19 C          16.8265   70.7225   -6.3628 C.ar    1  UNL1        0.0795
     20 C          17.9357   70.7328   -5.5928 C.ar    1  UNL1        0.0869
     21 O          20.3729   70.1972   -7.9896 O.2     1  UNL1       -0.2464
     22 O          15.9710   70.5043   -8.4712 O.2     1  UNL1       -0.2670
     23 H          18.2812   70.1978   -9.2412 H       1  UNL1        0.1734
     24 O          22.5446   72.8327    0.9416 O.3     1  UNL1       -0.2703
     25 P          21.2939   73.0580    1.9287 P.3     1  UNL1        0.2208
     26 O          20.8461   71.7530    2.4630 O.2     1  UNL1       -0.5170
     27 O          20.0864   73.7477    1.1173 O.3     1  UNL1       -0.4371
     28 O          21.7350   74.0135    3.1465 O.3     1  UNL1       -0.2865
     29 C          22.3184   73.1722    4.1430 C.3     1  UNL1        0.2611
     30 C          22.0366   73.7589    5.5274 C.3     1  UNL1        0.1582
     31 C          22.6237   75.1729    5.6015 C.3     1  UNL1        0.1625
     32 C          24.1036   75.1103    5.2088 C.3     1  UNL1        0.1686
     33 C          24.2292   74.4243    3.8469 C.3     1  UNL1        0.1760
     34 O          22.4992   75.6738    6.9338 O.3     1  UNL1       -0.3801
     35 O          24.6333   76.4350    5.1289 O.3     1  UNL1       -0.3794
     36 O          23.7261   73.0915    3.9302 O.3     1  UNL1       -0.3263
     37 H          22.8797   76.5630    6.9346 H       1  UNL1        0.2105
     38 H          25.5642   76.3493    4.8789 H       1  UNL1        0.2105
     39 C          19.9053   74.9363    5.4505 C.2     1  UNL1        0.2231
     40 C          18.4167   74.9946    5.6805 C.3     1  UNL1        0.0946
     41 N          20.5904   73.8159    5.7501 N.am    1  UNL1       -0.2994
     42 O          20.4868   75.8984    4.9962 O.2     1  UNL1       -0.2751
     43 H          20.1253   73.0459    6.1139 H       1  UNL1        0.1496
     44 C          25.7010   74.3858    3.4304 C.3     1  UNL1        0.1693
     45 O          26.0797   73.0384    3.1418 O.3     1  UNL1       -0.3794
     46 H          27.0114   73.0587    2.8846 H       1  UNL1        0.2105
@<TRIPOS>BOND
     1    29    30    1
     2    29    28    1
     3    29    36    1
     4    30    31    1
     5    30    41    1
     6    31    32    1
     7    31    34    1
     8    32    33    1
     9    32    35    1
    10    33    44    1
    11    33    36    1
    12    44    45    1
    13    39    40    1
    14    39    41   am
    15    39    42    2
    16    41    43    1
    17    28    25    1
    18    34    37    1
    19    35    38    1
    20    45    46    1
    21    15    16   ar
    22    15    20   ar
    23    15     6    1
    24    16    17   ar
    25    16    21    2
    26    17    18   ar
    27    17    23    1
    28    18    19   ar
    29    18    22    2
    30    19    20   ar
    31     6     7    1
    32     6    11    1
    33     7     8    1
    34     7     9    1
    35     8    13    1
    36     9    10    1
    37     9    12    1
    38    10    11    1
    39    10     5    1
    40    12    14    1
    41     5     4    1
    42     4     1    1
    43     1     2    2
    44     1     3    1
    45     1    24    1
    46    24    25    1
    47    25    26    2
    48    25    27    1
@<TRIPOS>MOLECULE
UD1
 46 48 0 0 0
SMALL
GASTEIGER

@<TRIPOS>ATOM
      1 P          15.3649   70.7620   -1.7752 P.3     1  UNL1        0.2189
      2 O          15.2690   71.6951   -0.6311 O.2     1  UNL1       -0.5170
      3 O          14.9221   71.5203   -3.1249 O.3     1  UNL1       -0.4371
      4 O          14.3918   69.5039   -1.5239 O.3     1  UNL1       -0.3112
      5 C          14.1940   69.4091   -0.1124 C.3     1  UNL1        0.1811
      6 C          13.1469   66.8216    2.1537 C.3     1  UNL1        0.2383
      7 C          11.8270   67.4798    1.6795 C.3     1  UNL1        0.1895
      8 O          10.7605   66.5303    1.6602 O.3     1  UNL1       -0.3779
      9 C          12.1885   67.9352    0.2418 C.3     1  UNL1        0.1713
     10 C          13.7282   67.9967    0.2445 C.3     1  UNL1        0.1764
     11 O          14.1694   67.6568    1.5701 O.3     1  UNL1       -0.3308
     12 O          11.7211   66.9838   -0.7169 O.3     1  UNL1       -0.3794
     13 H           9.9716   67.0013    1.3582 H       1  UNL1        0.2106
     14 H          10.7594   66.9475   -0.6283 H       1  UNL1        0.2105
     15 N          13.2395   66.8367    3.6141 N.ar    1  UNL1       -0.2551
     16 C          12.9047   65.7391    4.3143 C.ar    1  UNL1        0.3323
     17 N          12.9838   65.7233    5.6581 N.ar    1  UNL1       -0.2743
     18 C          13.3943   66.8193    6.3275 C.ar    1  UNL1        0.2626
     19 C          13.7441   67.9837    5.6031 C.ar    1  UNL1        0.0795
     20 C          13.6605   67.9704    4.2555 C.ar    1  UNL1        0.0869
     21 O          12.5327   64.7427    3.7249 O.2     1  UNL1       -0.2464
     22 O          13.4617   66.8077    7.5427 O.2     1  UNL1       -0.2670
     23 H          12.7430   64.9212    6.1469 H       1  UNL1        0.1734
     24 O          16.8819   70.2461   -1.9214 O.3     1  UNL1       -0.2703
     25 P          17.0064   69.5753   -3.3787 P.3     1  UNL1        0.2208
     26 O          15.6994   69.0046   -3.7722 O.2     1  UNL1       -0.5170
     27 O          18.1119   68.4055   -3.3392 O.3     1  UNL1       -0.4371
     28 O          17.4480   70.6930   -4.4493 O.3     1  UNL1       -0.2865
     29 C          18.6265   70.2066   -5.0942 C.3     1  UNL1        0.2611
     30 C          19.8060   71.1151   -4.7430 C.3     1  UNL1        0.1582
     31 C          19.4907   72.5443   -5.1985 C.3     1  UNL1        0.1625
     32 C          19.1110   72.5133   -6.6827 C.3     1  UNL1        0.1686
     33 C          17.9816   71.5013   -6.8870 C.3     1  UNL1        0.1760
     34 O          20.6411   73.3710   -5.0124 O.3     1  UNL1       -0.3801
     35 O          18.6720   73.8103   -7.0910 O.3     1  UNL1       -0.3794
     36 O          18.4257   70.1997   -6.5059 O.3     1  UNL1       -0.3263
     37 H          20.3987   74.2584   -5.3106 H       1  UNL1        0.2105
     38 H          18.4427   73.7456   -8.0289 H       1  UNL1        0.2105
     39 C          21.2756   71.0584   -2.8010 C.2     1  UNL1        0.2231
     40 C          21.4986   71.0406   -1.3103 C.3     1  UNL1        0.0946
     41 N          20.0231   71.0983   -3.2949 N.am    1  UNL1       -0.2994
     42 O          22.2240   71.0360   -3.5562 O.2     1  UNL1       -0.2751
     43 H          19.2640   71.1160   -2.6908 H       1  UNL1        0.1496
     44 C          17.5726   71.4862   -8.3614 C.3     1  UNL1        0.1693
     45 O          16.4350   70.6382   -8.5319 O.3     1  UNL1       -0.3794
     46 H          16.2108   70.6566   -9.4721 H       1  UNL1        0.2105
@<TRIPOS>BOND
     1    29    30    1
     2    29    28    1
     3    29    36    1
     4    30    31    1
     5    30    41    1
     6    31    32    1
     7    31    34    1
     8    32    33    1
     9    32    35    1
    10    33    44    1
    11    33    36    1
    12    44    45    1
    13    39    40    1
    14    39    41   am
    15    39    42    2
    16    41    43    1
    17    28    25    1
    18    34    37    1
    19    35    38    1
    20    45    46    1
    21    15    16   ar
    22    15    20   ar
    23    15     6    1
    24    16    17   ar
    25    16    21    2
    26    17    18   ar
    27    17    23    1
    28    18    19   ar
    29    18    22    2
    30    19    20   ar
    31     6     7    1
    32     6    11    1
    33     7     8    1
    34     7     9    1
    35     8    13    1
    36     9    10    1
    37     9    12    1
    38    10    11    1
    39    10     5    1
    40    12    14    1
    41     5     4    1
    42     4     1    1
    43     1     2    2
    44     1     3    1
    45     1    24    1
    46    24    25    1
    47    25    26    2
    48    25    27    1
@<TRIPOS>MOLECULE
UD1
 46 48 0 0 0
SMALL
GASTEIGER

@<TRIPOS>ATOM
      1 P          23.2005   71.0588    0.9005 P.3     1  UNL1        0.2189
      2 O          24.2488   70.3927    1.7043 O.2     1  UNL1       -0.5170
      3 O          21.8212   70.2385    1.0317 O.3     1  UNL1       -0.4371
      4 O          23.6543   71.1000   -0.6439 O.3     1  UNL1       -0.3112
      5 C          22.5221   71.5382   -1.3965 C.3     1  UNL1        0.1811
      6 C          21.4780   71.0959   -4.8084 C.3     1  UNL1        0.2383
      7 C          21.8676   72.5923   -4.7126 C.3     1  UNL1        0.1895
      8 O          22.3663   73.0716   -5.9619 O.3     1  UNL1       -0.3779
      9 C          22.9889   72.5689   -3.6414 C.3     1  UNL1        0.1713
     10 C          22.7524   71.2498   -2.8807 C.3     1  UNL1        0.1764
     11 O          21.5838   70.6316   -3.4457 O.3     1  UNL1       -0.3308
     12 O          24.2755   72.5713   -4.2638 O.3     1  UNL1       -0.3794
     13 H          22.5891   74.0043   -5.8353 H       1  UNL1        0.2106
     14 H          24.3389   73.3916   -4.7709 H       1  UNL1        0.2105
     15 N          20.1077   70.9464   -5.2997 N.ar    1  UNL1       -0.2551
     16 C          19.8908   70.6909   -6.6017 C.ar    1  UNL1        0.3323
     17 N          18.6412   70.5447   -7.0806 N.ar    1  UNL1       -0.2743
     18 C          17.5799   70.6623   -6.2573 C.ar    1  UNL1        0.2626
     19 C          17.7936   70.9371   -4.8855 C.ar    1  UNL1        0.0795
     20 C          19.0577   71.0738   -4.4307 C.ar    1  UNL1        0.0869
     21 O          20.8378   70.5819   -7.3567 O.2     1  UNL1       -0.2464
     22 O          16.4495   70.5351   -6.6901 O.2     1  UNL1       -0.2670
     23 H          18.5035   70.3559   -8.0216 H       1  UNL1        0.1734
     24 O          22.9860   72.5605    1.4368 O.3     1  UNL1       -0.2703
     25 P          22.3830   72.4414    2.9239 P.3     1  UNL1        0.2208
     26 O          23.0700   71.3498    3.6487 O.2     1  UNL1       -0.5170
     27 O          20.8074   72.1209    2.8408 O.3     1  UNL1       -0.4371
     28 O          22.6062   73.8293    3.7077 O.3     1  UNL1       -0.2865
     29 C          22.5529   73.5303    5.1037 C.3     1  UNL1        0.2611
     30 C          21.5627   74.4762    5.7854 C.3     1  UNL1        0.1582
     31 C          22.0148   75.9232    5.5589 C.3     1  UNL1        0.1625
     32 C          23.4699   76.0599    6.0196 C.3     1  UNL1        0.1686
     33 C          24.3168   74.9962    5.3177 C.3     1  UNL1        0.1760
     34 O          21.1849   76.8079    6.3139 O.3     1  UNL1       -0.3801
     35 O          23.9576   77.3600    5.6829 O.3     1  UNL1       -0.3794
     36 O          23.8495   73.6957    5.6736 O.3     1  UNL1       -0.3263
     37 H          21.5036   77.7047    6.1421 H       1  UNL1        0.2105
     38 H          24.8746   77.4028    5.9893 H       1  UNL1        0.2105
     39 C          19.1381   74.3766    5.9989 C.2     1  UNL1        0.2231
     40 C          17.7648   74.1781    5.4098 C.3     1  UNL1        0.0946
     41 N          20.2284   74.2839    5.2135 N.am    1  UNL1       -0.2994
     42 O          19.2616   74.6193    7.1804 O.2     1  UNL1       -0.2751
     43 H          20.1298   74.0895    4.2680 H       1  UNL1        0.1496
     44 C          25.7781   75.1450    5.7464 C.3     1  UNL1        0.1693
     45 O          25.8350   75.5129    7.1261 O.3     1  UNL1       -0.3794
     46 H          26.7706   75.5963    7.3551 H       1  UNL1        0.2105
@<TRIPOS>BOND
     1    29    30    1
     2    29    28    1
     3    29    36    1
     4    30    31    1
     5    30    41    1
     6    31    32    1
     7    31    34    1
     8    32    33    1
     9    32    35    1
    10    33    44    1
    11    33    36    1
    12    44    45    1
    13    39    40    1
    14    39    41   am
    15    39    42    2
    16    41    43    1
    17    28    25    1
    18    34    37    1
    19    35    38    1
    20    45    46    1
    21    15    16   ar
    22    15    20   ar
    23    15     6    1
    24    16    17   ar
    25    16    21    2
    26    17    18   ar
    27    17    23    1
    28    18    19   ar
    29    18    22    2
    30    19    20   ar
    31     6     7    1
    32     6    11    1
    33     7     8    1
    34     7     9    1
    35     8    13    1
    36     9    10    1
    37     9    12    1
    38    10    11    1
    39    10     5    1
    40    12    14    1
    41     5     4    1
    42     4     1    1
    43     1     2    2
    44     1     3    1
    45     1    24    1
    46    24    25    1
    47    25    26    2
    48    25    27    1
@<TRIPOS>MOLECULE
UD1
 46 48 0 0 0
SMALL
GASTEIGER

@<TRIPOS>ATOM
      1 P          20.8413   72.1735   -0.1871 P.3     1  UNL1        0.2189
      2 O          20.5594   73.0297    0.9861 O.2     1  UNL1       -0.5170
      3 O          20.7838   70.6255    0.2520 O.3     1  UNL1       -0.4371
      4 O          22.3075   72.5139   -0.7592 O.3     1  UNL1       -0.3112
      5 C          23.2475   71.8679    0.1007 C.3     1  UNL1        0.1811
      6 C          25.2349   73.2506    2.7588 C.3     1  UNL1        0.2383
      7 C          25.3139   74.3049    1.6264 C.3     1  UNL1        0.1895
      8 O          25.4579   75.6207    2.1621 O.3     1  UNL1       -0.3779
      9 C          23.9382   74.1384    0.9300 C.3     1  UNL1        0.1713
     10 C          23.4770   72.7278    1.3446 C.3     1  UNL1        0.1764
     11 O          24.5207   72.1539    2.1499 O.3     1  UNL1       -0.3308
     12 O          23.0189   75.1291    1.3950 O.3     1  UNL1       -0.3794
     13 H          25.5014   76.2265    1.4094 H       1  UNL1        0.2106
     14 H          23.3918   75.9889    1.1586 H       1  UNL1        0.2105
     15 N          26.5745   72.8290    3.1704 N.ar    1  UNL1       -0.2551
     16 C          27.0737   71.6643    2.7215 C.ar    1  UNL1        0.3323
     17 N          28.3044   71.2534    3.0805 N.ar    1  UNL1       -0.2743
     18 C          29.0569   72.0051    3.9091 C.ar    1  UNL1        0.2626
     19 C          28.5412   73.2306    4.3939 C.ar    1  UNL1        0.0795
     20 C          27.3059   73.6214    4.0136 C.ar    1  UNL1        0.0869
     21 O          26.4071   70.9753    1.9734 O.2     1  UNL1       -0.2464
     22 O          30.1678   71.6323    4.2382 O.2     1  UNL1       -0.2670
     23 H          28.6505   70.4127    2.7434 H       1  UNL1        0.1734
     24 O          19.7424   72.4495   -1.3294 O.3     1  UNL1       -0.2703
     25 P          19.7919   71.1944   -2.3351 P.3     1  UNL1        0.2208
     26 O          18.9730   70.0908   -1.7872 O.2     1  UNL1       -0.5170
     27 O          21.3149   70.6997   -2.5025 O.3     1  UNL1       -0.4371
     28 O          19.2106   71.6322   -3.7707 O.3     1  UNL1       -0.2865
     29 C          20.1010   71.1061   -4.7564 C.3     1  UNL1        0.2611
     30 C          20.7114   72.2605   -5.5531 C.3     1  UNL1        0.1582
     31 C          19.5856   73.0635   -6.2144 C.3     1  UNL1        0.1625
     32 C          18.7095   72.1029   -7.0255 C.3     1  UNL1        0.1686
     33 C          18.2476   70.9619   -6.1167 C.3     1  UNL1        0.1760
     34 O          20.1471   74.0517   -7.0803 O.3     1  UNL1       -0.3801
     35 O          17.5716   72.8044   -7.5301 O.3     1  UNL1       -0.3794
     36 O          19.3808   70.2421   -5.6328 O.3     1  UNL1       -0.3263
     37 H          19.4057   74.5322   -7.4737 H       1  UNL1        0.2105
     38 H          17.0482   72.1639   -8.0325 H       1  UNL1        0.2105
     39 C          22.8168   73.1326   -4.6922 C.2     1  UNL1        0.2231
     40 C          23.5977   74.0277   -3.7641 C.3     1  UNL1        0.0946
     41 N          21.4704   73.1302   -4.6521 N.am    1  UNL1       -0.2994
     42 O          23.4006   72.4137   -5.4749 O.2     1  UNL1       -0.2751
     43 H          21.0030   73.7053   -4.0257 H       1  UNL1        0.1496
     44 C          17.3451   70.0139   -6.9091 C.3     1  UNL1        0.1693
     45 O          15.9807   70.4058   -6.7446 O.3     1  UNL1       -0.3794
     46 H          15.4472   69.7844   -7.2582 H       1  UNL1        0.2105
@<TRIPOS>BOND
     1    29    30    1
     2    29    28    1
     3    29    36    1
     4    30    31    1
     5    30    41    1
     6    31    32    1
     7    31    34    1
     8    32    33    1
     9    32    35    1
    10    33    44    1
    11    33    36    1
    12    44    45    1
    13    39    40    1
    14    39    41   am
    15    39    42    2
    16    41    43    1
    17    28    25    1
    18    34    37    1
    19    35    38    1
    20    45    46    1
    21    15    16   ar
    22    15    20   ar
    23    15     6    1
    24    16    17   ar
    25    16    21    2
    26    17    18   ar
    27    17    23    1
    28    18    19   ar
    29    18    22    2
    30    19    20   ar
    31     6     7    1
    32     6    11    1
    33     7     8    1
    34     7     9    1
    35     8    13    1
    36     9    10    1
    37     9    12    1
    38    10    11    1
    39    10     5    1
    40    12    14    1
    41     5     4    1
    42     4     1    1
    43     1     2    2
    44     1     3    1
    45     1    24    1
    46    24    25    1
    47    25    26    2
    48    25    27    1
@<TRIPOS>MOLECULE
UD1
 46 48 0 0 0
SMALL
GASTEIGER

@<TRIPOS>ATOM
      1 P          22.9407   71.5964   -2.8707 P.3     1  UNL1        0.2189
      2 O          24.1896   70.8721   -3.1938 O.2     1  UNL1       -0.5170
      3 O          22.7530   72.8255   -3.8938 O.3     1  UNL1       -0.4371
      4 O          23.0225   72.1607   -1.3648 O.3     1  UNL1       -0.3112
      5 C          24.1047   71.4813   -0.7265 C.3     1  UNL1        0.1811
      6 C          23.5144   71.9544    2.7885 C.3     1  UNL1        0.2383
      7 C          22.1514   72.2652    2.1207 C.3     1  UNL1        0.1895
      8 O          21.0684   71.9282    2.9883 O.3     1  UNL1       -0.3779
      9 C          22.1768   71.3346    0.8803 C.3     1  UNL1        0.1713
     10 C          23.6730   71.0316    0.6702 C.3     1  UNL1        0.1764
     11 O          24.4041   71.7649    1.6677 O.3     1  UNL1       -0.3308
     12 O          21.4482   70.1330    1.1412 O.3     1  UNL1       -0.3794
     13 H          20.2529   72.1452    2.5158 H       1  UNL1        0.2106
     14 H          20.5355   70.3938    1.3231 H       1  UNL1        0.2105
     15 N          23.9566   73.0786    3.6142 N.ar    1  UNL1       -0.2551
     16 C          25.2197   73.5268    3.5084 C.ar    1  UNL1        0.3323
     17 N          25.6526   74.5617    4.2526 N.ar    1  UNL1       -0.2743
     18 C          24.8224   75.1630    5.1285 C.ar    1  UNL1        0.2626
     19 C          23.4918   74.6975    5.2543 C.ar    1  UNL1        0.0795
     20 C          23.0822   73.6611    4.4918 C.ar    1  UNL1        0.0869
     21 O          25.9803   72.9949    2.7229 O.2     1  UNL1       -0.2464
     22 O          25.2141   76.0956    5.8053 O.2     1  UNL1       -0.2670
     23 H          26.5655   74.8749    4.1599 H       1  UNL1        0.1734
     24 O          21.6895   70.5932   -3.0004 O.3     1  UNL1       -0.2703
     25 P          20.3968   71.3912   -2.4697 P.3     1  UNL1        0.2208
     26 O          20.8203   72.6824   -1.8845 O.2     1  UNL1       -0.5170
     27 O          19.6474   70.5140   -1.3467 O.3     1  UNL1       -0.4371
     28 O          19.3909   71.6622   -3.6965 O.3     1  UNL1       -0.2865
     29 C          19.6331   70.6400   -4.6648 C.3     1  UNL1        0.2611
     30 C          19.5946   71.2523   -6.0660 C.3     1  UNL1        0.1582
     31 C          18.2235   71.8988   -6.2931 C.3     1  UNL1        0.1625
     32 C          17.1369   70.8569   -6.0068 C.3     1  UNL1        0.1686
     33 C          17.3590   70.2765   -4.6085 C.3     1  UNL1        0.1760
     34 O          18.1215   72.3421   -7.6475 O.3     1  UNL1       -0.3801
     35 O          15.8514   71.4774   -6.0696 O.3     1  UNL1       -0.3794
     36 O          18.6309   69.6320   -4.5505 O.3     1  UNL1       -0.3263
     37 H          17.2461   72.7413   -7.7457 H       1  UNL1        0.2105
     38 H          15.1985   70.7879   -5.8829 H       1  UNL1        0.2105
     39 C          21.3164   72.4098   -7.3428 C.2     1  UNL1        0.2231
     40 C          22.3948   73.4559   -7.4651 C.3     1  UNL1        0.0946
     41 N          20.6420   72.2687   -6.1854 N.am    1  UNL1       -0.2994
     42 O          21.0560   71.6943   -8.2865 O.2     1  UNL1       -0.2751
     43 H          20.8504   72.8410   -5.4300 H       1  UNL1        0.1496
     44 C          16.2597   69.2580   -4.2999 C.3     1  UNL1        0.1693
     45 O          15.8761   68.5910   -5.5041 O.3     1  UNL1       -0.3794
     46 H          15.1834   67.9600   -5.2659 H       1  UNL1        0.2105
@<TRIPOS>BOND
     1    29    30    1
     2    29    28    1
     3    29    36    1
     4    30    31    1
     5    30    41    1
     6    31    32    1
     7    31    34    1
     8    32    33    1
     9    32    35    1
    10    33    44    1
    11    33    36    1
    12    44    45    1
    13    39    40    1
    14    39    41   am
    15    39    42    2
    16    41    43    1
    17    28    25    1
    18    34    37    1
    19    35    38    1
    20    45    46    1
    21    15    16   ar
    22    15    20   ar
    23    15     6    1
    24    16    17   ar
    25    16    21    2
    26    17    18   ar
    27    17    23    1
    28    18    19   ar
    29    18    22    2
    30    19    20   ar
    31     6     7    1
    32     6    11    1
    33     7     8    1
    34     7     9    1
    35     8    13    1
    36     9    10    1
    37     9    12    1
    38    10    11    1
    39    10     5    1
    40    12    14    1
    41     5     4    1
    42     4     1    1
    43     1     2    2
    44     1     3    1
    45     1    24    1
    46    24    25    1
    47    25    26    2
    48    25    27    1
@<TRIPOS>MOLECULE
UD1
 46 48 0 0 0
SMALL
GASTEIGER

@<TRIPOS>ATOM
      1 P          22.8050   71.4421   -3.0320 P.3     1  UNL1        0.2189
      2 O          24.1761   70.8862   -3.0381 O.2     1  UNL1       -0.5170
      3 O          22.6502   72.5020   -4.2341 O.3     1  UNL1       -0.4371
      4 O          22.5326   72.1813   -1.6277 O.3     1  UNL1       -0.3112
      5 C          23.7254   72.0505   -0.8528 C.3     1  UNL1        0.1811
      6 C          23.0707   72.3822    2.6669 C.3     1  UNL1        0.2383
      7 C          21.6742   72.4726    2.0021 C.3     1  UNL1        0.1895
      8 O          20.6624   71.9533    2.8657 O.3     1  UNL1       -0.3779
      9 C          21.8500   71.5723    0.7516 C.3     1  UNL1        0.1713
     10 C          23.3753   71.5210    0.5387 C.3     1  UNL1        0.1764
     11 O          23.9777   72.3534    1.5444 O.3     1  UNL1       -0.3308
     12 O          21.3286   70.2648    0.9992 O.3     1  UNL1       -0.3794
     13 H          19.8216   72.0387    2.3953 H       1  UNL1        0.2106
     14 H          20.3858   70.3704    1.1836 H       1  UNL1        0.2105
     15 N          23.3238   73.5547    3.5051 N.ar    1  UNL1       -0.2551
     16 C          23.0402   73.5087    4.8184 C.ar    1  UNL1        0.3323
     17 N          23.2664   74.5708    5.6140 N.ar    1  UNL1       -0.2743
     18 C          23.7760   75.7085    5.1001 C.ar    1  UNL1        0.2626
     19 C          24.0736   75.7726    3.7180 C.ar    1  UNL1        0.0795
     20 C          23.8418   74.6908    2.9439 C.ar    1  UNL1        0.0869
     21 O          22.5803   72.4898    5.2967 O.2     1  UNL1       -0.2464
     22 O          23.9765   76.6710    5.8176 O.2     1  UNL1       -0.2670
     23 H          23.0604   74.5184    6.5601 H       1  UNL1        0.1734
     24 O          21.7418   70.2501   -3.2259 O.3     1  UNL1       -0.2703
     25 P          20.2809   70.8921   -3.0186 P.3     1  UNL1        0.2208
     26 O          20.3978   72.3639   -2.9248 O.2     1  UNL1       -0.5170
     27 O          19.6294   70.3186   -1.6625 O.3     1  UNL1       -0.4371
     28 O          19.3419   70.5070   -4.2679 O.3     1  UNL1       -0.2865
     29 C          18.8085   71.7303   -4.7780 C.3     1  UNL1        0.2611
     30 C          17.3293   71.5344   -5.1153 C.3     1  UNL1        0.1582
     31 C          17.1957   70.4123   -6.1509 C.3     1  UNL1        0.1625
     32 C          18.0993   70.7372   -7.3451 C.3     1  UNL1        0.1686
     33 C          19.5212   70.9902   -6.8398 C.3     1  UNL1        0.1760
     34 O          15.8375   70.3205   -6.5849 O.3     1  UNL1       -0.3801
     35 O          18.1029   69.6358   -8.2553 O.3     1  UNL1       -0.3794
     36 O          19.5257   72.1071   -5.9515 O.3     1  UNL1       -0.3263
     37 H          15.7992   69.6041   -7.2334 H       1  UNL1        0.2105
     38 H          18.6831   69.8818   -8.9897 H       1  UNL1        0.2105
     39 C          16.3847   69.8761   -3.6015 C.2     1  UNL1        0.2231
     40 C          15.6271   69.5038   -2.3525 C.3     1  UNL1        0.0946
     41 N          16.5939   71.1723   -3.9019 N.am    1  UNL1       -0.2994
     42 O          16.8054   69.0085   -4.3366 O.2     1  UNL1       -0.2751
     43 H          16.2572   71.8668   -3.3138 H       1  UNL1        0.1496
     44 C          20.4389   71.2839   -8.0284 C.3     1  UNL1        0.1693
     45 O          20.9684   72.6056   -7.9068 O.3     1  UNL1       -0.3794
     46 H          21.5392   72.7500   -8.6736 H       1  UNL1        0.2105
@<TRIPOS>BOND
     1    29    30    1
     2    29    28    1
     3    29    36    1
     4    30    31    1
     5    30    41    1
     6    31    32    1
     7    31    34    1
     8    32    33    1
     9    32    35    1
    10    33    44    1
    11    33    36    1
    12    44    45    1
    13    39    40    1
    14    39    41   am
    15    39    42    2
    16    41    43    1
    17    28    25    1
    18    34    37    1
    19    35    38    1
    20    45    46    1
    21    15    16   ar
    22    15    20   ar
    23    15     6    1
    24    16    17   ar
    25    16    21    2
    26    17    18   ar
    27    17    23    1
    28    18    19   ar
    29    18    22    2
    30    19    20   ar
    31     6     7    1
    32     6    11    1
    33     7     8    1
    34     7     9    1
    35     8    13    1
    36     9    10    1
    37     9    12    1
    38    10    11    1
    39    10     5    1
    40    12    14    1
    41     5     4    1
    42     4     1    1
    43     1     2    2
    44     1     3    1
    45     1    24    1
    46    24    25    1
    47    25    26    2
    48    25    27    1
