@<TRIPOS>MOLECULE
UDP-glaA
 43 45 0 0 0
SMALL
GASTEIGER

@<TRIPOS>ATOM
      1 P          23.0497   72.0184   -3.2307 P.3     1  UNL1        0.2189
      2 O          23.8036   73.0236   -4.2498 O.3     1  UNL1       -0.4371
      3 O          23.5723   70.6116   -3.2268 O.2     1  UNL1       -0.5170
      4 O          21.4851   72.1860   -3.6042 O.3     1  UNL1       -0.3112
      5 C          20.6534   71.0387   -3.5685 C.3     1  UNL1        0.1811
      6 O          18.7755   72.0304   -4.6928 O.3     1  UNL1       -0.3308
      7 O          17.0900   70.8754   -2.4982 O.3     1  UNL1       -0.3794
      8 O          16.6924   69.1159   -4.5431 O.3     1  UNL1       -0.3779
      9 C          18.2504   70.3318   -3.1271 C.3     1  UNL1        0.1713
     10 C          17.9099   69.8318   -4.5152 C.3     1  UNL1        0.1895
     11 C          19.2039   71.4809   -3.4273 C.3     1  UNL1        0.1764
     12 C          17.8452   71.1251   -5.3096 C.3     1  UNL1        0.2383
     13 H          17.3641   71.2174   -1.6302 H       1  UNL1        0.2105
     14 H          16.7788   68.3674   -3.9279 H       1  UNL1        0.2106
     15 O          16.0433   70.4019   -7.3603 O.2     1  UNL1       -0.2464
     16 O          19.3688   70.4514  -10.5505 O.2     1  UNL1       -0.2670
     17 N          18.2128   70.9428   -6.6847 N.ar    1  UNL1       -0.2551
     18 N          17.7006   70.4265   -8.9475 N.ar    1  UNL1       -0.2743
     19 C          17.2314   70.5784   -7.6360 C.ar    1  UNL1        0.3323
     20 C          19.5337   71.1246   -7.0792 C.ar    1  UNL1        0.0869
     21 C          19.9652   70.9765   -8.3336 C.ar    1  UNL1        0.0795
     22 C          19.0041   70.5961   -9.3878 C.ar    1  UNL1        0.2626
     23 H          17.0126   70.1642   -9.6482 H       1  UNL1        0.1734
     24 O          23.1683   72.7849   -1.8117 O.3     1  UNL1       -0.2703
     25 P          23.2609   74.3603   -1.4620 P.3     1  UNL1        0.2208
     26 O          22.0921   75.0114   -2.3709 O.3     1  UNL1       -0.4371
     27 O          24.6208   74.9602   -1.6777 O.2     1  UNL1       -0.5170
     28 O          22.7136   74.4761    0.0516 O.3     1  UNL1       -0.2858
     29 O          21.6420   72.4103    0.4803 O.3     1  UNL1       -0.3226
     30 O          21.3231   74.3354    4.1507 O.3     1  UNL1       -0.3794
     31 O          20.9111   75.8056    1.6659 O.3     1  UNL1       -0.3775
     32 O          20.8218   71.8048    3.1634 O.3     1  UNL1       -0.3792
     33 C          21.8903   73.9551    2.9001 C.3     1  UNL1        0.1718
     34 C          20.9781   74.3858    1.7466 C.3     1  UNL1        0.1968
     35 C          22.0756   72.4353    2.8821 C.3     1  UNL1        0.1723
     36 C          21.4922   73.8322    0.4118 C.3     1  UNL1        0.2706
     37 C          22.5490   71.9925    1.4994 C.3     1  UNL1        0.1830
     38 H          21.9312   74.0414    4.8502 H       1  UNL1        0.2105
     39 H          20.3321   76.0300    0.9180 H       1  UNL1        0.2106
     40 H          20.2516   71.8880    2.3804 H       1  UNL1        0.2106
     41 O          21.5239   70.0137    0.7661 O.co2   1  UNL1       -0.5466
     42 O          23.5366   69.8123    1.8175 O.co2   1  UNL1       -0.5466
     43 C          22.6193   70.5020    1.3964 C.2     1  UNL1        0.0799
@<TRIPOS>UNITY_ATOM_ATTR
41 1
charge -1
@<TRIPOS>BOND
     1     1     4    1
     2     1    24    1
     3     1     2    1
     4     1     3    2
     5    25    28    1
     6    25    24    1
     7    25    26    1
     8    25    27    2
     9     6    11    1
    10     6    12    1
    11    29    36    1
    12    29    37    1
    13     7     9    1
    14     7    13    1
    15     8    10    1
    16     8    14    1
    17     4     5    1
    18    28    36    1
    19    30    33    1
    20    30    38    1
    21    31    34    1
    22    31    39    1
    23    32    35    1
    24    32    40    1
    25    41    43   ar
    26    15    19    2
    27    42    43   ar
    28    16    22    2
    29    17    12    1
    30    17    19   ar
    31    17    20   ar
    32    18    19   ar
    33    18    22   ar
    34    18    23    1
    35     9    10    1
    36     9    11    1
    37    10    12    1
    38    11     5    1
    39    33    34    1
    40    33    35    1
    41    34    36    1
    42    35    37    1
    43    37    43    1
    44    20    21   ar
    45    21    22   ar
@<TRIPOS>MOLECULE
UDP-glaA
 43 45 0 0 0
SMALL
GASTEIGER

@<TRIPOS>ATOM
      1 P          22.9831   71.6561   -2.7157 P.3     1  UNL1        0.2189
      2 O          23.8066   72.9649   -3.1912 O.3     1  UNL1       -0.4371
      3 O          23.4980   70.3538   -3.2551 O.2     1  UNL1       -0.5170
      4 O          21.4470   72.0090   -3.0784 O.3     1  UNL1       -0.3112
      5 C          20.6040   70.9679   -3.5417 C.3     1  UNL1        0.1811
      6 O          18.7359   71.9805   -4.6639 O.3     1  UNL1       -0.3308
      7 O          17.0310   70.7826   -2.5076 O.3     1  UNL1       -0.3794
      8 O          16.6532   69.0629   -4.5898 O.3     1  UNL1       -0.3779
      9 C          18.1974   70.2517   -3.1362 C.3     1  UNL1        0.1713
     10 C          17.8699   69.7786   -4.5368 C.3     1  UNL1        0.1895
     11 C          19.1530   71.4068   -3.4053 C.3     1  UNL1        0.1764
     12 C          17.8118   71.0870   -5.3066 C.3     1  UNL1        0.2383
     13 H          17.2969   71.1078   -1.6306 H       1  UNL1        0.2105
     14 H          16.7343   68.3027   -3.9884 H       1  UNL1        0.2106
     15 O          16.0330   70.3837   -7.3841 O.2     1  UNL1       -0.2464
     16 O          19.3835   70.5166  -10.5455 O.2     1  UNL1       -0.2670
     17 N          18.1920   70.9315   -6.6815 N.ar    1  UNL1       -0.2551
     18 N          17.7027   70.4498   -8.9569 N.ar    1  UNL1       -0.2743
     19 C          17.2216   70.5751   -7.6470 C.ar    1  UNL1        0.3323
     20 C          19.5145   71.1315   -7.0619 C.ar    1  UNL1        0.0869
     21 C          19.9573   71.0086   -8.3151 C.ar    1  UNL1        0.0795
     22 C          19.0082   70.6382   -9.3835 C.ar    1  UNL1        0.2626
     23 H          17.0227   70.1936   -9.6677 H       1  UNL1        0.1734
     24 O          23.0121   71.7758   -1.1032 O.3     1  UNL1       -0.2703
     25 P          22.4936   70.7629    0.0447 P.3     1  UNL1        0.2208
     26 O          23.6757   69.6622    0.1298 O.3     1  UNL1       -0.4371
     27 O          21.1293   70.1890   -0.2106 O.2     1  UNL1       -0.5170
     28 O          22.6176   71.6023    1.4172 O.3     1  UNL1       -0.2858
     29 O          21.6565   72.4191    3.4194 O.3     1  UNL1       -0.3226
     30 O          21.3993   75.7281    0.9166 O.3     1  UNL1       -0.3794
     31 O          20.8238   73.0549   -0.0977 O.3     1  UNL1       -0.3775
     32 O          20.9716   75.2010    3.5941 O.3     1  UNL1       -0.3792
     33 C          21.9324   74.5333    1.4809 C.3     1  UNL1        0.1718
     34 C          20.9568   73.3680    1.2847 C.3     1  UNL1        0.1968
     35 C          22.1840   74.7601    2.9741 C.3     1  UNL1        0.1723
     36 C          21.4412   72.1216    2.0359 C.3     1  UNL1        0.2706
     37 C          22.6210   73.4500    3.6258 C.3     1  UNL1        0.1830
     38 H          22.0473   76.4376    1.0659 H       1  UNL1        0.2105
     39 H          20.2061   72.3080   -0.1713 H       1  UNL1        0.2106
     40 H          20.3675   74.4426    3.6652 H       1  UNL1        0.2106
     41 O          23.8879   74.2628    5.4253 O.co2   1  UNL1       -0.5466
     42 O          21.9506   73.1717    5.9286 O.co2   1  UNL1       -0.5466
     43 C          22.7531   73.5938    5.1086 C.2     1  UNL1        0.0799
@<TRIPOS>UNITY_ATOM_ATTR
41 1
charge -1
@<TRIPOS>BOND
     1     1     4    1
     2     1    24    1
     3     1     2    1
     4     1     3    2
     5    25    28    1
     6    25    24    1
     7    25    26    1
     8    25    27    2
     9     6    11    1
    10     6    12    1
    11    29    36    1
    12    29    37    1
    13     7     9    1
    14     7    13    1
    15     8    10    1
    16     8    14    1
    17     4     5    1
    18    28    36    1
    19    30    33    1
    20    30    38    1
    21    31    34    1
    22    31    39    1
    23    32    35    1
    24    32    40    1
    25    41    43   ar
    26    15    19    2
    27    42    43   ar
    28    16    22    2
    29    17    12    1
    30    17    19   ar
    31    17    20   ar
    32    18    19   ar
    33    18    22   ar
    34    18    23    1
    35     9    10    1
    36     9    11    1
    37    10    12    1
    38    11     5    1
    39    33    34    1
    40    33    35    1
    41    34    36    1
    42    35    37    1
    43    37    43    1
    44    20    21   ar
    45    21    22   ar
@<TRIPOS>MOLECULE
UDP-glaA
 43 45 0 0 0
SMALL
GASTEIGER

@<TRIPOS>ATOM
      1 P          22.8700   71.8132   -2.4738 P.3     1  UNL1        0.2189
      2 O          23.6933   73.1993   -2.6092 O.3     1  UNL1       -0.4371
      3 O          23.4667   70.6483   -3.2080 O.2     1  UNL1       -0.5170
      4 O          21.3613   72.2130   -2.8974 O.3     1  UNL1       -0.3112
      5 C          20.5866   71.2681   -3.6159 C.3     1  UNL1        0.1811
      6 O          18.6594   72.1290   -4.7646 O.3     1  UNL1       -0.3308
      7 O          17.0350   70.9320   -2.5465 O.3     1  UNL1       -0.3794
      8 O          16.7403   69.1077   -4.5518 O.3     1  UNL1       -0.3779
      9 C          18.2252   70.4394   -3.1616 C.3     1  UNL1        0.1713
     10 C          17.9163   69.8904   -4.5385 C.3     1  UNL1        0.1895
     11 C          19.1144   71.6325   -3.4864 C.3     1  UNL1        0.1764
     12 C          17.7821   71.1600   -5.3619 C.3     1  UNL1        0.2383
     13 H          17.2877   71.3080   -1.6861 H       1  UNL1        0.2105
     14 H          16.8664   68.3792   -3.9198 H       1  UNL1        0.2106
     15 O          16.0107   70.3665   -7.4132 O.2     1  UNL1       -0.2464
     16 O          19.3542   70.4504  -10.5838 O.2     1  UNL1       -0.2670
     17 N          18.1625   70.9675   -6.7322 N.ar    1  UNL1       -0.2551
     18 N          17.6769   70.4083   -8.9906 N.ar    1  UNL1       -0.2743
     19 C          17.1960   70.5671   -7.6842 C.ar    1  UNL1        0.3323
     20 C          19.4813   71.1749   -7.1211 C.ar    1  UNL1        0.0869
     21 C          19.9240   71.0198   -8.3708 C.ar    1  UNL1        0.0795
     22 C          18.9788   70.6024   -9.4253 C.ar    1  UNL1        0.2626
     23 H          16.9997   70.1203   -9.6917 H       1  UNL1        0.1734
     24 O          22.7570   71.6139   -0.8729 O.3     1  UNL1       -0.2703
     25 P          21.9749   70.5046    0.0048 P.3     1  UNL1        0.2208
     26 O          23.1663   69.5580    0.5532 O.3     1  UNL1       -0.4371
     27 O          20.8975   69.7739   -0.7443 O.2     1  UNL1       -0.5170
     28 O          21.4565   71.3044    1.3069 O.3     1  UNL1       -0.2858
     29 O          21.8843   73.6170    1.0454 O.3     1  UNL1       -0.3226
     30 O          20.2916   73.4540    4.8816 O.3     1  UNL1       -0.3794
     31 O          22.1728   71.4200    3.9707 O.3     1  UNL1       -0.3775
     32 O          20.9948   75.4305    3.0847 O.3     1  UNL1       -0.3792
     33 C          20.4857   73.1084    3.5130 C.3     1  UNL1        0.1718
     34 C          21.9258   72.6396    3.2792 C.3     1  UNL1        0.1968
     35 C          20.1864   74.3340    2.6454 C.3     1  UNL1        0.1723
     36 C          22.1928   72.4300    1.7835 C.3     1  UNL1        0.2706
     37 C          20.5251   74.0265    1.1884 C.3     1  UNL1        0.1830
     38 H          19.3697   73.7465    4.9825 H       1  UNL1        0.2105
     39 H          23.0906   71.1585    3.7858 H       1  UNL1        0.2106
     40 H          21.9104   75.2735    2.7981 H       1  UNL1        0.2106
     41 O          21.5198   75.9543    0.2951 O.co2   1  UNL1       -0.5466
     42 O          19.3528   75.5424   -0.2805 O.co2   1  UNL1       -0.5466
     43 C          20.3708   75.2370    0.3236 C.2     1  UNL1        0.0799
@<TRIPOS>UNITY_ATOM_ATTR
41 1
charge -1
@<TRIPOS>BOND
     1     1     4    1
     2     1    24    1
     3     1     2    1
     4     1     3    2
     5    25    28    1
     6    25    24    1
     7    25    26    1
     8    25    27    2
     9     6    11    1
    10     6    12    1
    11    29    36    1
    12    29    37    1
    13     7     9    1
    14     7    13    1
    15     8    10    1
    16     8    14    1
    17     4     5    1
    18    28    36    1
    19    30    33    1
    20    30    38    1
    21    31    34    1
    22    31    39    1
    23    32    35    1
    24    32    40    1
    25    41    43   ar
    26    15    19    2
    27    42    43   ar
    28    16    22    2
    29    17    12    1
    30    17    19   ar
    31    17    20   ar
    32    18    19   ar
    33    18    22   ar
    34    18    23    1
    35     9    10    1
    36     9    11    1
    37    10    12    1
    38    11     5    1
    39    33    34    1
    40    33    35    1
    41    34    36    1
    42    35    37    1
    43    37    43    1
    44    20    21   ar
    45    21    22   ar
@<TRIPOS>MOLECULE
UDP-glaA
 43 45 0 0 0
SMALL
GASTEIGER

@<TRIPOS>ATOM
      1 P          21.9531   74.3044   -5.9238 P.3     1  UNL1        0.2189
      2 O          21.9476   75.8833   -6.2764 O.3     1  UNL1       -0.4371
      3 O          22.8071   73.4582   -6.8219 O.2     1  UNL1       -0.5170
      4 O          20.3852   73.9116   -5.8701 O.3     1  UNL1       -0.3112
      5 C          19.5101   74.4848   -6.8266 C.3     1  UNL1        0.1811
      6 O          19.5742   72.1677   -7.4600 O.3     1  UNL1       -0.3308
      7 O          17.8828   72.9558   -9.8072 O.3     1  UNL1       -0.3794
      8 O          16.0573   71.8754   -8.0938 O.3     1  UNL1       -0.3779
      9 C          17.8638   73.4580   -8.4712 C.3     1  UNL1        0.1713
     10 C          17.2230   72.4503   -7.5404 C.3     1  UNL1        0.1895
     11 C          19.2990   73.4939   -7.9625 C.3     1  UNL1        0.1764
     12 C          18.3405   71.4384   -7.3527 C.3     1  UNL1        0.2383
     13 H          18.3361   73.6161  -10.3587 H       1  UNL1        0.2105
     14 H          15.4362   72.5993   -8.2847 H       1  UNL1        0.2106
     15 O          16.3299   69.6202   -6.5610 O.2     1  UNL1       -0.2464
     16 O          18.2401   69.0332   -2.4083 O.2     1  UNL1       -0.2670
     17 N          18.2881   70.7952   -6.0709 N.ar    1  UNL1       -0.2551
     18 N          17.2821   69.3295   -4.4934 N.ar    1  UNL1       -0.2743
     19 C          17.2351   69.8991   -5.7726 C.ar    1  UNL1        0.3323
     20 C          19.2731   71.0546   -5.1244 C.ar    1  UNL1        0.0869
     21 C          19.3043   70.5031   -3.9092 C.ar    1  UNL1        0.0795
     22 C          18.2407   69.5569   -3.5181 C.ar    1  UNL1        0.2626
     23 H          16.5347   68.6826   -4.2568 H       1  UNL1        0.1734
     24 O          22.3864   74.2826   -4.3659 O.3     1  UNL1       -0.2703
     25 P          23.4171   73.3289   -3.5653 P.3     1  UNL1        0.2208
     26 O          24.8610   73.9709   -3.9103 O.3     1  UNL1       -0.4371
     27 O          23.2917   71.8698   -3.8984 O.2     1  UNL1       -0.5170
     28 O          23.1750   73.6806   -2.0091 O.3     1  UNL1       -0.2858
     29 O          21.5924   72.0972   -1.2427 O.3     1  UNL1       -0.3226
     30 O          22.4516   74.2193    2.2268 O.3     1  UNL1       -0.3794
     31 O          22.1439   75.6061   -0.3203 O.3     1  UNL1       -0.3775
     32 O          21.0435   71.9356    1.5700 O.3     1  UNL1       -0.3792
     33 C          22.6747   73.6090    0.9588 C.3     1  UNL1        0.1718
     34 C          21.7772   74.2471   -0.1069 C.3     1  UNL1        0.1968
     35 C          22.3730   72.1120    1.0698 C.3     1  UNL1        0.1723
     36 C          21.8838   73.4855   -1.4339 C.3     1  UNL1        0.2706
     37 C          22.4685   71.4655   -0.3105 C.3     1  UNL1        0.1830
     38 H          23.0373   73.7836    2.8692 H       1  UNL1        0.2105
     39 H          21.5566   75.9640   -1.0073 H       1  UNL1        0.2106
     40 H          20.4152   72.1553    0.8614 H       1  UNL1        0.2106
     41 O          21.6092   69.6260   -1.4859 O.co2   1  UNL1       -0.5466
     42 O          22.1114   69.3089    0.7150 O.co2   1  UNL1       -0.5466
     43 C          22.0550   70.0286   -0.2715 C.2     1  UNL1        0.0799
@<TRIPOS>UNITY_ATOM_ATTR
41 1
charge -1
@<TRIPOS>BOND
     1     1     4    1
     2     1    24    1
     3     1     2    1
     4     1     3    2
     5    25    28    1
     6    25    24    1
     7    25    26    1
     8    25    27    2
     9     6    11    1
    10     6    12    1
    11    29    36    1
    12    29    37    1
    13     7     9    1
    14     7    13    1
    15     8    10    1
    16     8    14    1
    17     4     5    1
    18    28    36    1
    19    30    33    1
    20    30    38    1
    21    31    34    1
    22    31    39    1
    23    32    35    1
    24    32    40    1
    25    41    43   ar
    26    15    19    2
    27    42    43   ar
    28    16    22    2
    29    17    12    1
    30    17    19   ar
    31    17    20   ar
    32    18    19   ar
    33    18    22   ar
    34    18    23    1
    35     9    10    1
    36     9    11    1
    37    10    12    1
    38    11     5    1
    39    33    34    1
    40    33    35    1
    41    34    36    1
    42    35    37    1
    43    37    43    1
    44    20    21   ar
    45    21    22   ar
@<TRIPOS>MOLECULE
UDP-glaA
 43 45 0 0 0
SMALL
GASTEIGER

@<TRIPOS>ATOM
      1 P          22.9311   71.8302   -2.8798 P.3     1  UNL1        0.2189
      2 O          23.6096   70.3995   -3.2116 O.3     1  UNL1       -0.4371
      3 O          22.7898   72.1400   -1.4183 O.2     1  UNL1       -0.5170
      4 O          21.5564   71.8164   -3.7316 O.3     1  UNL1       -0.3112
      5 C          20.6704   70.7218   -3.5702 C.3     1  UNL1        0.1811
      6 O          18.8631   71.8693   -4.6615 O.3     1  UNL1       -0.3308
      7 O          17.1005   70.7497   -2.5095 O.3     1  UNL1       -0.3794
      8 O          16.5979   69.0904   -4.6142 O.3     1  UNL1       -0.3779
      9 C          18.2259   70.1550   -3.1557 C.3     1  UNL1        0.1713
     10 C          17.8585   69.7257   -4.5605 C.3     1  UNL1        0.1895
     11 C          19.2516   71.2505   -3.4152 C.3     1  UNL1        0.1764
     12 C          17.8789   71.0470   -5.3099 C.3     1  UNL1        0.2383
     13 H          17.3932   71.0435   -1.6300 H       1  UNL1        0.2105
     14 H          16.6345   68.3172   -4.0251 H       1  UNL1        0.2106
     15 O          16.0463   70.4717   -7.3801 O.2     1  UNL1       -0.2464
     16 O          19.3726   70.4597  -10.5699 O.2     1  UNL1       -0.2670
     17 N          18.2384   70.8889   -6.6902 N.ar    1  UNL1       -0.2551
     18 N          17.7039   70.4656   -8.9670 N.ar    1  UNL1       -0.2743
     19 C          17.2416   70.6000   -7.6513 C.ar    1  UNL1        0.3323
     20 C          19.5667   71.0198   -7.0799 C.ar    1  UNL1        0.0869
     21 C          19.9916   70.8892   -8.3386 C.ar    1  UNL1        0.0795
     22 C          19.0143   70.5865   -9.4030 C.ar    1  UNL1        0.2626
     23 H          17.0048   70.2572   -9.6748 H       1  UNL1        0.1734
     24 O          23.8574   72.8699   -3.7022 O.3     1  UNL1       -0.2703
     25 P          24.3045   74.3864   -3.3663 P.3     1  UNL1        0.2208
     26 O          25.7126   74.5397   -4.1473 O.3     1  UNL1       -0.4371
     27 O          24.3725   74.6978   -1.8986 O.2     1  UNL1       -0.5170
     28 O          23.2743   75.3099   -4.1967 O.3     1  UNL1       -0.2858
     29 O          21.3205   74.5943   -5.3236 O.3     1  UNL1       -0.3226
     30 O          22.3974   77.9661   -7.5032 O.3     1  UNL1       -0.3794
     31 O          24.4282   76.0866   -6.5817 O.3     1  UNL1       -0.3775
     32 O          20.2390   76.2451   -7.4078 O.3     1  UNL1       -0.3792
     33 C          22.2377   77.1178   -6.3695 C.3     1  UNL1        0.1718
     34 C          23.0300   75.8196   -6.5576 C.3     1  UNL1        0.1968
     35 C          20.7499   76.8026   -6.1925 C.3     1  UNL1        0.1723
     36 C          22.7286   74.8304   -5.4249 C.3     1  UNL1        0.2706
     37 C          20.5715   75.7820   -5.0706 C.3     1  UNL1        0.1830
     38 H          21.8782   78.7723   -7.3418 H       1  UNL1        0.2105
     39 H          24.8872   75.2370   -6.6927 H       1  UNL1        0.2106
     40 H          20.5684   75.3343   -7.4923 H       1  UNL1        0.2106
     41 O          18.8280   75.1070   -3.6534 O.co2   1  UNL1       -0.5466
     42 O          18.3671   75.2246   -5.8829 O.co2   1  UNL1       -0.5466
     43 C          19.1458   75.3467   -4.9485 C.2     1  UNL1        0.0799
@<TRIPOS>UNITY_ATOM_ATTR
41 1
charge -1
@<TRIPOS>BOND
     1     1     4    1
     2     1    24    1
     3     1     2    1
     4     1     3    2
     5    25    28    1
     6    25    24    1
     7    25    26    1
     8    25    27    2
     9     6    11    1
    10     6    12    1
    11    29    36    1
    12    29    37    1
    13     7     9    1
    14     7    13    1
    15     8    10    1
    16     8    14    1
    17     4     5    1
    18    28    36    1
    19    30    33    1
    20    30    38    1
    21    31    34    1
    22    31    39    1
    23    32    35    1
    24    32    40    1
    25    41    43   ar
    26    15    19    2
    27    42    43   ar
    28    16    22    2
    29    17    12    1
    30    17    19   ar
    31    17    20   ar
    32    18    19   ar
    33    18    22   ar
    34    18    23    1
    35     9    10    1
    36     9    11    1
    37    10    12    1
    38    11     5    1
    39    33    34    1
    40    33    35    1
    41    34    36    1
    42    35    37    1
    43    37    43    1
    44    20    21   ar
    45    21    22   ar
@<TRIPOS>MOLECULE
UDP-glaA
 43 45 0 0 0
SMALL
GASTEIGER

@<TRIPOS>ATOM
      1 P          22.3221   72.2969   -3.8599 P.3     1  UNL1        0.2189
      2 O          23.5459   71.2868   -3.5445 O.3     1  UNL1       -0.4371
      3 O          20.9562   71.6804   -3.7806 O.2     1  UNL1       -0.5170
      4 O          22.7156   72.9529   -5.2848 O.3     1  UNL1       -0.3112
      5 C          22.1788   74.2219   -5.6176 C.3     1  UNL1        0.1811
      6 O          21.5604   73.3472   -7.7686 O.3     1  UNL1       -0.3308
      7 O          22.2096   76.0664   -8.8529 O.3     1  UNL1       -0.3794
      8 O          19.4878   76.1216   -8.6976 O.3     1  UNL1       -0.3779
      9 C          21.6193   75.7098   -7.6031 C.3     1  UNL1        0.1713
     10 C          20.1831   75.2750   -7.8058 C.3     1  UNL1        0.1895
     11 C          22.2772   74.4227   -7.1232 C.3     1  UNL1        0.1764
     12 C          20.3533   73.8669   -8.3501 C.3     1  UNL1        0.2383
     13 H          23.1375   76.2996   -8.6791 H       1  UNL1        0.2105
     14 H          19.5180   77.0218   -8.3302 H       1  UNL1        0.2106
     15 O          17.9649   73.6380   -9.8396 O.2     1  UNL1       -0.2464
     16 O          16.2190   70.5392   -6.9092 O.2     1  UNL1       -0.2670
     17 N          19.2585   73.0078   -7.9998 N.ar    1  UNL1       -0.2551
     18 N          17.0969   72.0954   -8.3791 N.ar    1  UNL1       -0.2743
     19 C          18.1032   72.9674   -8.8150 C.ar    1  UNL1        0.3323
     20 C          19.3358   72.2165   -6.8591 C.ar    1  UNL1        0.0869
     21 C          18.3679   71.3899   -6.4571 C.ar    1  UNL1        0.0795
     22 C          17.1279   71.2891   -7.2519 C.ar    1  UNL1        0.2626
     23 H          16.2567   72.0505   -8.9494 H       1  UNL1        0.1734
     24 O          22.5754   73.5090   -2.8197 O.3     1  UNL1       -0.2703
     25 P          21.5384   74.4931   -2.0656 P.3     1  UNL1        0.2208
     26 O          20.0976   73.8350   -2.3927 O.3     1  UNL1       -0.4371
     27 O          21.6638   75.9374   -2.4579 O.2     1  UNL1       -0.5170
     28 O          21.7713   74.2064   -0.4948 O.3     1  UNL1       -0.2858
     29 O          21.0296   72.1278    0.3591 O.3     1  UNL1       -0.3226
     30 O          21.6864   74.3125    3.8340 O.3     1  UNL1       -0.3794
     31 O          20.4439   75.5628    1.5104 O.3     1  UNL1       -0.3775
     32 O          21.0966   71.6907    3.1951 O.3     1  UNL1       -0.3792
     33 C          21.8789   73.8661    2.4946 C.3     1  UNL1        0.1718
     34 C          20.6344   74.1588    1.6496 C.3     1  UNL1        0.1968
     35 C          22.1596   72.3610    2.5098 C.3     1  UNL1        0.1723
     36 C          20.7637   73.5306    0.2564 C.3     1  UNL1        0.2706
     37 C          22.2278   71.8372    1.0769 C.3     1  UNL1        0.1830
     38 H          22.4957   74.1052    4.3315 H       1  UNL1        0.2105
     39 H          19.6529   75.6986    0.9620 H       1  UNL1        0.2106
     40 H          20.3136   71.6837    2.6189 H       1  UNL1        0.2106
     41 O          23.4054   69.9510    1.8248 O.co2   1  UNL1       -0.5466
     42 O          21.6570   69.5887    0.4075 O.co2   1  UNL1       -0.5466
     43 C          22.3716   70.3488    1.0447 C.2     1  UNL1        0.0799
@<TRIPOS>UNITY_ATOM_ATTR
41 1
charge -1
@<TRIPOS>BOND
     1     1     4    1
     2     1    24    1
     3     1     2    1
     4     1     3    2
     5    25    28    1
     6    25    24    1
     7    25    26    1
     8    25    27    2
     9     6    11    1
    10     6    12    1
    11    29    36    1
    12    29    37    1
    13     7     9    1
    14     7    13    1
    15     8    10    1
    16     8    14    1
    17     4     5    1
    18    28    36    1
    19    30    33    1
    20    30    38    1
    21    31    34    1
    22    31    39    1
    23    32    35    1
    24    32    40    1
    25    41    43   ar
    26    15    19    2
    27    42    43   ar
    28    16    22    2
    29    17    12    1
    30    17    19   ar
    31    17    20   ar
    32    18    19   ar
    33    18    22   ar
    34    18    23    1
    35     9    10    1
    36     9    11    1
    37    10    12    1
    38    11     5    1
    39    33    34    1
    40    33    35    1
    41    34    36    1
    42    35    37    1
    43    37    43    1
    44    20    21   ar
    45    21    22   ar
@<TRIPOS>MOLECULE
UDP-glaA
 43 45 0 0 0
SMALL
GASTEIGER

@<TRIPOS>ATOM
      1 P          21.6887   70.8614   -1.0964 P.3     1  UNL1        0.2189
      2 O          23.2740   70.5444   -1.0349 O.3     1  UNL1       -0.4371
      3 O          20.7969   69.6734   -0.8836 O.2     1  UNL1       -0.5170
      4 O          21.5010   71.6385   -2.5022 O.3     1  UNL1       -0.3112
      5 C          20.7120   71.0318   -3.5115 C.3     1  UNL1        0.1811
      6 O          18.8481   72.0583   -4.6278 O.3     1  UNL1       -0.3308
      7 O          17.1507   70.9343   -2.4263 O.3     1  UNL1       -0.3794
      8 O          16.7120   69.1829   -4.4697 O.3     1  UNL1       -0.3779
      9 C          18.2982   70.3694   -3.0601 C.3     1  UNL1        0.1713
     10 C          17.9427   69.8761   -4.4468 C.3     1  UNL1        0.1895
     11 C          19.2715   71.5007   -3.3641 C.3     1  UNL1        0.1764
     12 C          17.8986   71.1706   -5.2408 C.3     1  UNL1        0.2383
     13 H          17.4348   71.2710   -1.5594 H       1  UNL1        0.2105
     14 H          16.7871   68.4328   -3.8550 H       1  UNL1        0.2106
     15 O          16.0891   70.4072   -7.2701 O.2     1  UNL1       -0.2464
     16 O          19.3866   70.4737  -10.4889 O.2     1  UNL1       -0.2670
     17 N          18.2569   70.9817   -6.6175 N.ar    1  UNL1       -0.2551
     18 N          17.7324   70.4403   -8.8715 N.ar    1  UNL1       -0.2743
     19 C          17.2724   70.5968   -7.5574 C.ar    1  UNL1        0.3323
     20 C          19.5719   71.1774   -7.0246 C.ar    1  UNL1        0.0869
     21 C          19.9947   71.0247   -8.2815 C.ar    1  UNL1        0.0795
     22 C          19.0299   70.6232   -9.3243 C.ar    1  UNL1        0.2626
     23 H          17.0421   70.1633   -9.5642 H       1  UNL1        0.1734
     24 O          21.5123   72.0403   -0.0035 O.3     1  UNL1       -0.2703
     25 P          22.1701   73.5143    0.0815 P.3     1  UNL1        0.2208
     26 O          21.0455   74.4619   -0.5921 O.3     1  UNL1       -0.4371
     27 O          23.5288   73.6199   -0.5496 O.2     1  UNL1       -0.5170
     28 O          22.1330   73.8887    1.6507 O.3     1  UNL1       -0.2858
     29 O          23.8096   73.6175    3.2984 O.3     1  UNL1       -0.3226
     30 O          20.3250   73.1553    5.5172 O.3     1  UNL1       -0.3794
     31 O          20.5590   71.9711    2.8623 O.3     1  UNL1       -0.3775
     32 O          23.0252   73.3900    6.0501 O.3     1  UNL1       -0.3792
     33 C          21.1909   73.6516    4.5003 C.3     1  UNL1        0.1718
     34 C          21.6571   72.5096    3.5910 C.3     1  UNL1        0.1968
     35 C          22.3987   74.3211    5.1616 C.3     1  UNL1        0.1723
     36 C          22.7208   73.0023    2.6020 C.3     1  UNL1        0.2706
     37 C          23.4068   74.7333    4.0911 C.3     1  UNL1        0.1830
     38 H          20.0574   73.9100    6.0688 H       1  UNL1        0.2105
     39 H          20.9032   71.2603    2.2956 H       1  UNL1        0.2106
     40 H          23.5015   72.7292    5.5194 H       1  UNL1        0.2106
     41 O          24.6802   76.6278    4.6329 O.co2   1  UNL1       -0.5466
     42 O          25.5497   74.5969    5.1954 O.co2   1  UNL1       -0.5466
     43 C          24.6610   75.2747    4.7002 C.2     1  UNL1        0.0799
@<TRIPOS>UNITY_ATOM_ATTR
41 1
charge -1
@<TRIPOS>BOND
     1     1     4    1
     2     1    24    1
     3     1     2    1
     4     1     3    2
     5    25    28    1
     6    25    24    1
     7    25    26    1
     8    25    27    2
     9     6    11    1
    10     6    12    1
    11    29    36    1
    12    29    37    1
    13     7     9    1
    14     7    13    1
    15     8    10    1
    16     8    14    1
    17     4     5    1
    18    28    36    1
    19    30    33    1
    20    30    38    1
    21    31    34    1
    22    31    39    1
    23    32    35    1
    24    32    40    1
    25    41    43   ar
    26    15    19    2
    27    42    43   ar
    28    16    22    2
    29    17    12    1
    30    17    19   ar
    31    17    20   ar
    32    18    19   ar
    33    18    22   ar
    34    18    23    1
    35     9    10    1
    36     9    11    1
    37    10    12    1
    38    11     5    1
    39    33    34    1
    40    33    35    1
    41    34    36    1
    42    35    37    1
    43    37    43    1
    44    20    21   ar
    45    21    22   ar
@<TRIPOS>MOLECULE
UDP-glaA
 43 45 0 0 0
SMALL
GASTEIGER

@<TRIPOS>ATOM
      1 P          20.4291   72.5008   -4.7361 P.3     1  UNL1        0.2189
      2 O          20.1395   71.2348   -5.7009 O.3     1  UNL1       -0.4371
      3 O          19.2746   72.9147   -3.8713 O.2     1  UNL1       -0.5170
      4 O          20.9968   73.6343   -5.7404 O.3     1  UNL1       -0.3112
      5 C          22.1068   73.3163   -6.5626 C.3     1  UNL1        0.1811
      6 O          20.9940   72.9030   -8.6519 O.3     1  UNL1       -0.3308
      7 O          21.3924   75.8189   -9.2267 O.3     1  UNL1       -0.3794
      8 O          18.7834   75.7180   -8.4398 O.3     1  UNL1       -0.3779
      9 C          21.1089   75.1735   -7.9854 C.3     1  UNL1        0.1713
     10 C          19.6619   74.7298   -7.9426 C.3     1  UNL1        0.1895
     11 C          21.8508   73.8435   -7.9673 C.3     1  UNL1        0.1764
     12 C          19.6883   73.4824   -8.8095 C.3     1  UNL1        0.2383
     13 H          22.3370   76.0497   -9.2242 H       1  UNL1        0.2105
     14 H          18.9062   76.5174   -7.8993 H       1  UNL1        0.2106
     15 O          19.2768   71.0009  -10.0932 O.2     1  UNL1       -0.2464
     16 O          15.8626   69.8694   -7.2120 O.2     1  UNL1       -0.2670
     17 N          18.6995   72.5200   -8.4155 N.ar    1  UNL1       -0.2551
     18 N          17.5766   70.4393   -8.6580 N.ar    1  UNL1       -0.2743
     19 C          18.5738   71.3043   -9.1276 C.ar    1  UNL1        0.3323
     20 C          17.8665   72.7849   -7.3342 C.ar    1  UNL1        0.0869
     21 C          16.9208   71.9498   -6.8984 C.ar    1  UNL1        0.0795
     22 C          16.7237   70.6590   -7.5874 C.ar    1  UNL1        0.2626
     23 H          17.4677   69.5595   -9.1551 H       1  UNL1        0.1734
     24 O          21.7494   72.0420   -3.9228 O.3     1  UNL1       -0.2703
     25 P          21.9965   70.8028   -2.9148 P.3     1  UNL1        0.2208
     26 O          23.5985   70.5885   -2.9760 O.3     1  UNL1       -0.4371
     27 O          21.1939   69.5754   -3.2393 O.2     1  UNL1       -0.5170
     28 O          21.7214   71.4099   -1.4452 O.3     1  UNL1       -0.2858
     29 O          23.3252   72.8482   -0.4660 O.3     1  UNL1       -0.3226
     30 O          21.0324   71.7359    2.8181 O.3     1  UNL1       -0.3794
     31 O          21.7507   69.7766    0.7806 O.3     1  UNL1       -0.3775
     32 O          23.0486   73.5523    2.3028 O.3     1  UNL1       -0.3792
     33 C          21.3339   72.0707    1.4663 C.3     1  UNL1        0.1718
     34 C          22.3357   71.0708    0.8788 C.3     1  UNL1        0.1968
     35 C          21.9198   73.4847    1.4252 C.3     1  UNL1        0.1723
     36 C          22.7969   71.5187   -0.5138 C.3     1  UNL1        0.2706
     37 C          22.3809   73.8081    0.0057 C.3     1  UNL1        0.1830
     38 H          20.3986   72.3948    3.1491 H       1  UNL1        0.2105
     39 H          22.4166   69.1821    0.3960 H       1  UNL1        0.2106
     40 H          23.7902   73.0788    1.8892 H       1  UNL1        0.2106
     41 O          24.3812   75.0001    0.2921 O.co2   1  UNL1       -0.5466
     42 O          22.5527   76.1859   -0.3768 O.co2   1  UNL1       -0.5466
     43 C          23.0781   75.1299   -0.0554 C.2     1  UNL1        0.0799
@<TRIPOS>UNITY_ATOM_ATTR
41 1
charge -1
@<TRIPOS>BOND
     1     1     4    1
     2     1    24    1
     3     1     2    1
     4     1     3    2
     5    25    28    1
     6    25    24    1
     7    25    26    1
     8    25    27    2
     9     6    11    1
    10     6    12    1
    11    29    36    1
    12    29    37    1
    13     7     9    1
    14     7    13    1
    15     8    10    1
    16     8    14    1
    17     4     5    1
    18    28    36    1
    19    30    33    1
    20    30    38    1
    21    31    34    1
    22    31    39    1
    23    32    35    1
    24    32    40    1
    25    41    43   ar
    26    15    19    2
    27    42    43   ar
    28    16    22    2
    29    17    12    1
    30    17    19   ar
    31    17    20   ar
    32    18    19   ar
    33    18    22   ar
    34    18    23    1
    35     9    10    1
    36     9    11    1
    37    10    12    1
    38    11     5    1
    39    33    34    1
    40    33    35    1
    41    34    36    1
    42    35    37    1
    43    37    43    1
    44    20    21   ar
    45    21    22   ar
@<TRIPOS>MOLECULE
UDP-glaA
 43 45 0 0 0
SMALL
GASTEIGER

@<TRIPOS>ATOM
      1 P          21.2451   73.4279   -5.7236 P.3     1  UNL1        0.2189
      2 O          20.1089   74.1596   -4.8343 O.3     1  UNL1       -0.4371
      3 O          22.3119   74.3369   -6.2600 O.2     1  UNL1       -0.5170
      4 O          20.4026   72.6031   -6.8305 O.3     1  UNL1       -0.3112
      5 C          19.3175   71.8008   -6.3966 C.3     1  UNL1        0.1811
      6 O          17.1465   71.3830   -7.3381 O.3     1  UNL1       -0.3308
      7 O          18.5229   71.3026  -10.0009 O.3     1  UNL1       -0.3794
      8 O          17.4298   73.8006   -9.9707 O.3     1  UNL1       -0.3779
      9 C          18.7992   72.1229   -8.8657 C.3     1  UNL1        0.1713
     10 C          17.7474   73.2037   -8.7304 C.3     1  UNL1        0.1895
     11 C          18.5614   71.2883   -7.6141 C.3     1  UNL1        0.1764
     12 C          16.5795   72.4352   -8.1361 C.3     1  UNL1        0.2383
     13 H          19.1981   70.6032  -10.0243 H       1  UNL1        0.2105
     14 H          18.2510   74.1741  -10.3346 H       1  UNL1        0.2106
     15 O          16.0317   71.9111   -5.4157 O.2     1  UNL1       -0.2464
     16 O          13.3767   75.6592   -5.0393 O.2     1  UNL1       -0.2670
     17 N          15.7491   73.2574   -7.3033 N.ar    1  UNL1       -0.2551
     18 N          14.7096   73.7776   -5.2302 N.ar    1  UNL1       -0.2743
     19 C          15.5370   72.9054   -5.9498 C.ar    1  UNL1        0.3323
     20 C          15.1543   74.3990   -7.8291 C.ar    1  UNL1        0.0869
     21 C          14.3683   75.2207   -7.1298 C.ar    1  UNL1        0.0795
     22 C          14.0954   74.9242   -5.7095 C.ar    1  UNL1        0.2626
     23 H          14.5425   73.5439   -4.2552 H       1  UNL1        0.1734
     24 O          21.7843   72.2653   -4.7373 O.3     1  UNL1       -0.2703
     25 P          22.9506   72.2808   -3.6182 P.3     1  UNL1        0.2208
     26 O          24.1051   73.1870   -4.2980 O.3     1  UNL1       -0.4371
     27 O          23.4072   70.9169   -3.1856 O.2     1  UNL1       -0.5170
     28 O          22.3618   73.1958   -2.4266 O.3     1  UNL1       -0.2858
     29 O          21.4239   71.4659   -1.1123 O.3     1  UNL1       -0.3226
     30 O          21.4825   74.6528    1.5560 O.3     1  UNL1       -0.3794
     31 O          20.7214   75.0659   -1.2290 O.3     1  UNL1       -0.3775
     32 O          20.9559   71.9440    1.6789 O.3     1  UNL1       -0.3792
     33 C          21.9077   73.8154    0.4844 C.3     1  UNL1        0.1718
     34 C          20.8481   73.7842   -0.6223 C.3     1  UNL1        0.1968
     35 C          22.1433   72.4019    1.0239 C.3     1  UNL1        0.1723
     36 C          21.2165   72.7553   -1.6983 C.3     1  UNL1        0.2706
     37 C          22.4616   71.4574   -0.1332 C.3     1  UNL1        0.1830
     38 H          22.1808   74.6405    2.2326 H       1  UNL1        0.2105
     39 H          20.0488   74.9949   -1.9270 H       1  UNL1        0.2106
     40 H          20.2927   71.7290    1.0014 H       1  UNL1        0.2106
     41 O          23.8556   69.6124    0.2626 O.co2   1  UNL1       -0.5466
     42 O          21.6380   69.3562    0.7249 O.co2   1  UNL1       -0.5466
     43 C          22.5719   70.0402    0.3319 C.2     1  UNL1        0.0799
@<TRIPOS>UNITY_ATOM_ATTR
41 1
charge -1
@<TRIPOS>BOND
     1     1     4    1
     2     1    24    1
     3     1     2    1
     4     1     3    2
     5    25    28    1
     6    25    24    1
     7    25    26    1
     8    25    27    2
     9     6    11    1
    10     6    12    1
    11    29    36    1
    12    29    37    1
    13     7     9    1
    14     7    13    1
    15     8    10    1
    16     8    14    1
    17     4     5    1
    18    28    36    1
    19    30    33    1
    20    30    38    1
    21    31    34    1
    22    31    39    1
    23    32    35    1
    24    32    40    1
    25    41    43   ar
    26    15    19    2
    27    42    43   ar
    28    16    22    2
    29    17    12    1
    30    17    19   ar
    31    17    20   ar
    32    18    19   ar
    33    18    22   ar
    34    18    23    1
    35     9    10    1
    36     9    11    1
    37    10    12    1
    38    11     5    1
    39    33    34    1
    40    33    35    1
    41    34    36    1
    42    35    37    1
    43    37    43    1
    44    20    21   ar
    45    21    22   ar
@<TRIPOS>MOLECULE
UDP-glaA
 43 45 0 0 0
SMALL
GASTEIGER

@<TRIPOS>ATOM
      1 P          22.8482   72.0033   -3.2069 P.3     1  UNL1        0.2189
      2 O          23.6990   70.6287   -3.2696 O.3     1  UNL1       -0.4371
      3 O          22.6668   72.5732   -1.8305 O.2     1  UNL1       -0.5170
      4 O          21.4875   71.6564   -4.0091 O.3     1  UNL1       -0.3112
      5 C          20.6486   70.6297   -3.5078 C.3     1  UNL1        0.1811
      6 O          18.8632   71.8226   -4.5863 O.3     1  UNL1       -0.3308
      7 O          17.0741   70.6887   -2.4639 O.3     1  UNL1       -0.3794
      8 O          16.5589   69.0757   -4.6013 O.3     1  UNL1       -0.3779
      9 C          18.1942   70.0901   -3.1155 C.3     1  UNL1        0.1713
     10 C          17.8280   69.6920   -4.5298 C.3     1  UNL1        0.1895
     11 C          19.2366   71.1755   -3.3498 C.3     1  UNL1        0.1764
     12 C          17.8708   71.0264   -5.2546 C.3     1  UNL1        0.2383
     13 H          17.3664   70.9621   -1.5777 H       1  UNL1        0.2105
     14 H          16.5815   68.2914   -4.0263 H       1  UNL1        0.2106
     15 O          16.0484   70.4599   -7.3362 O.2     1  UNL1       -0.2464
     16 O          19.3822   70.5178  -10.5176 O.2     1  UNL1       -0.2670
     17 N          18.2349   70.8886   -6.6358 N.ar    1  UNL1       -0.2551
     18 N          17.7098   70.4886   -8.9190 N.ar    1  UNL1       -0.2743
     19 C          17.2431   70.6025   -7.6028 C.ar    1  UNL1        0.3323
     20 C          19.5629   71.0366   -7.0206 C.ar    1  UNL1        0.0869
     21 C          19.9919   70.9254   -8.2797 C.ar    1  UNL1        0.0795
     22 C          19.0200   70.6269   -9.3502 C.ar    1  UNL1        0.2626
     23 H          17.0143   70.2826   -9.6310 H       1  UNL1        0.1734
     24 O          23.6406   72.9671   -4.2358 O.3     1  UNL1       -0.2703
     25 P          23.3056   74.4574   -4.7643 P.3     1  UNL1        0.2208
     26 O          22.1210   74.9439   -3.7763 O.3     1  UNL1       -0.4371
     27 O          22.9639   74.5306   -6.2250 O.2     1  UNL1       -0.5170
     28 O          24.5853   75.3412   -4.3338 O.3     1  UNL1       -0.2858
     29 O          26.9059   74.9070   -4.1736 O.3     1  UNL1       -0.3226
     30 O          26.2354   77.2998   -0.8413 O.3     1  UNL1       -0.3794
     31 O          24.3219   75.2292   -1.5878 O.3     1  UNL1       -0.3775
     32 O          28.4318   76.2541   -2.1498 O.3     1  UNL1       -0.3792
     33 C          26.0797   76.8040   -2.1680 C.3     1  UNL1        0.1718
     34 C          25.6286   75.3397   -2.1419 C.3     1  UNL1        0.1968
     35 C          27.4174   76.9270   -2.9028 C.3     1  UNL1        0.1723
     36 C          25.6242   74.7473   -3.5566 C.3     1  UNL1        0.2706
     37 C          27.3098   76.2715   -4.2779 C.3     1  UNL1        0.1830
     38 H          26.5233   78.2263   -0.9062 H       1  UNL1        0.2105
     39 H          24.0763   74.2888   -1.6007 H       1  UNL1        0.2106
     40 H          28.3036   75.2952   -2.2470 H       1  UNL1        0.2106
     41 O          28.4674   76.4542   -6.3102 O.co2   1  UNL1       -0.5466
     42 O          29.7118   76.0844   -4.4363 O.co2   1  UNL1       -0.5466
     43 C          28.6301   76.2533   -4.9803 C.2     1  UNL1        0.0799
@<TRIPOS>UNITY_ATOM_ATTR
41 1
charge -1
@<TRIPOS>BOND
     1     1     4    1
     2     1    24    1
     3     1     2    1
     4     1     3    2
     5    25    28    1
     6    25    24    1
     7    25    26    1
     8    25    27    2
     9     6    11    1
    10     6    12    1
    11    29    36    1
    12    29    37    1
    13     7     9    1
    14     7    13    1
    15     8    10    1
    16     8    14    1
    17     4     5    1
    18    28    36    1
    19    30    33    1
    20    30    38    1
    21    31    34    1
    22    31    39    1
    23    32    35    1
    24    32    40    1
    25    41    43   ar
    26    15    19    2
    27    42    43   ar
    28    16    22    2
    29    17    12    1
    30    17    19   ar
    31    17    20   ar
    32    18    19   ar
    33    18    22   ar
    34    18    23    1
    35     9    10    1
    36     9    11    1
    37    10    12    1
    38    11     5    1
    39    33    34    1
    40    33    35    1
    41    34    36    1
    42    35    37    1
    43    37    43    1
    44    20    21   ar
    45    21    22   ar
@<TRIPOS>MOLECULE
UDP-glaA
 43 45 0 0 0
SMALL
GASTEIGER

@<TRIPOS>ATOM
      1 P          23.0879   72.5530   -3.4747 P.3     1  UNL1        0.2189
      2 O          23.3903   70.9969   -3.1512 O.3     1  UNL1       -0.4371
      3 O          24.1579   73.2563   -4.2573 O.2     1  UNL1       -0.5170
      4 O          22.7396   73.1908   -2.0299 O.3     1  UNL1       -0.3112
      5 C          22.6649   72.3272   -0.9083 C.3     1  UNL1        0.1811
      6 O          21.5380   72.4477    1.2106 O.3     1  UNL1       -0.3308
      7 O          19.3059   73.8015   -0.2647 O.3     1  UNL1       -0.3794
      8 O          20.5950   75.8944    0.9157 O.3     1  UNL1       -0.3779
      9 C          20.7151   73.9005   -0.4701 C.3     1  UNL1        0.1713
     10 C          21.3477   74.7354    0.6232 C.3     1  UNL1        0.1895
     11 C          21.3244   72.5280   -0.2160 C.3     1  UNL1        0.1764
     12 C          21.3881   73.7567    1.7845 C.3     1  UNL1        0.2383
     13 H          18.9507   73.2273   -0.9645 H       1  UNL1        0.2105
     14 H          20.5244   76.4123    0.0954 H       1  UNL1        0.2106
     15 O          23.8160   74.9780    1.0170 O.2     1  UNL1       -0.2464
     16 O          25.5359   74.6596    5.2807 O.2     1  UNL1       -0.2670
     17 N          22.4869   74.0057    2.6733 N.ar    1  UNL1       -0.2551
     18 N          24.6710   74.8182    3.1405 N.ar    1  UNL1       -0.2743
     19 C          23.6625   74.6242    2.1874 C.ar    1  UNL1        0.3323
     20 C          22.3934   73.6380    4.0110 C.ar    1  UNL1        0.0869
     21 C          23.3636   73.8302    4.9075 C.ar    1  UNL1        0.0795
     22 C          24.6244   74.4692    4.4813 C.ar    1  UNL1        0.2626
     23 H          25.5257   75.2606    2.8135 H       1  UNL1        0.1734
     24 O          21.6458   72.4978   -4.2044 O.3     1  UNL1       -0.2703
     25 P          20.3207   71.6347   -3.8701 P.3     1  UNL1        0.2208
     26 O          19.3382   72.7166   -3.1771 O.3     1  UNL1       -0.4371
     27 O          20.5769   70.4091   -3.0406 O.2     1  UNL1       -0.5170
     28 O          19.6521   71.3383   -5.3086 O.3     1  UNL1       -0.2858
     29 O          18.6775   72.6022   -7.0556 O.3     1  UNL1       -0.3226
     30 O          16.0193   69.4275   -6.6898 O.3     1  UNL1       -0.3794
     31 O          17.1585   70.6867   -4.3186 O.3     1  UNL1       -0.3775
     32 O          16.4014   71.5315   -8.4382 O.3     1  UNL1       -0.3792
     33 C          17.2651   70.1189   -6.6793 C.3     1  UNL1        0.1718
     34 C          17.2480   71.2350   -5.6294 C.3     1  UNL1        0.1968
     35 C          17.5146   70.7109   -8.0692 C.3     1  UNL1        0.1723
     36 C          18.5158   72.0927   -5.7277 C.3     1  UNL1        0.2706
     37 C          18.7737   71.5746   -8.0406 C.3     1  UNL1        0.1830
     38 H          16.0745   68.7337   -7.3689 H       1  UNL1        0.2105
     39 H          17.1605   71.4279   -3.6898 H       1  UNL1        0.2106
     40 H          16.4409   72.3553   -7.9234 H       1  UNL1        0.2106
     41 O          19.0190   71.3894  -10.3664 O.co2   1  UNL1       -0.5466
     42 O          19.1073   73.4865   -9.4770 O.co2   1  UNL1       -0.5466
     43 C          18.9848   72.2775   -9.3438 C.2     1  UNL1        0.0799
@<TRIPOS>UNITY_ATOM_ATTR
41 1
charge -1
@<TRIPOS>BOND
     1     1     4    1
     2     1    24    1
     3     1     2    1
     4     1     3    2
     5    25    28    1
     6    25    24    1
     7    25    26    1
     8    25    27    2
     9     6    11    1
    10     6    12    1
    11    29    36    1
    12    29    37    1
    13     7     9    1
    14     7    13    1
    15     8    10    1
    16     8    14    1
    17     4     5    1
    18    28    36    1
    19    30    33    1
    20    30    38    1
    21    31    34    1
    22    31    39    1
    23    32    35    1
    24    32    40    1
    25    41    43   ar
    26    15    19    2
    27    42    43   ar
    28    16    22    2
    29    17    12    1
    30    17    19   ar
    31    17    20   ar
    32    18    19   ar
    33    18    22   ar
    34    18    23    1
    35     9    10    1
    36     9    11    1
    37    10    12    1
    38    11     5    1
    39    33    34    1
    40    33    35    1
    41    34    36    1
    42    35    37    1
    43    37    43    1
    44    20    21   ar
    45    21    22   ar
@<TRIPOS>MOLECULE
UDP-glaA
 43 45 0 0 0
SMALL
GASTEIGER

@<TRIPOS>ATOM
      1 P          19.8615   70.8933   -3.9378 P.3     1  UNL1        0.2189
      2 O          20.6642   69.5422   -3.5536 O.3     1  UNL1       -0.4371
      3 O          18.8804   71.3624   -2.9036 O.2     1  UNL1       -0.5170
      4 O          19.2454   70.5783   -5.3995 O.3     1  UNL1       -0.3112
      5 C          17.8577   70.3094   -5.5061 C.3     1  UNL1        0.1811
      6 O          16.1696   70.9744   -7.0816 O.3     1  UNL1       -0.3308
      7 O          18.2853   70.6849   -9.1867 O.3     1  UNL1       -0.3794
      8 O          18.2058   73.3815   -8.7890 O.3     1  UNL1       -0.3779
      9 C          18.4061   71.1509   -7.8428 C.3     1  UNL1        0.1713
     10 C          17.8271   72.5443   -7.7161 C.3     1  UNL1        0.1895
     11 C          17.4594   70.3323   -6.9749 C.3     1  UNL1        0.1764
     12 C          16.3340   72.2648   -7.6923 C.3     1  UNL1        0.2383
     13 H          18.6324   69.7769   -9.2108 H       1  UNL1        0.2105
     14 H          19.1777   73.4209   -8.8006 H       1  UNL1        0.2106
     15 O          15.1899   74.6087   -8.7751 O.2     1  UNL1       -0.2464
     16 O          13.5647   75.9311   -4.6704 O.2     1  UNL1       -0.2670
     17 N          15.6062   73.2386   -6.9299 N.ar    1  UNL1       -0.2551
     18 N          14.3818   75.2659   -6.7303 N.ar    1  UNL1       -0.2743
     19 C          15.0725   74.3817   -7.5696 C.ar    1  UNL1        0.3323
     20 C          15.4272   73.0562   -5.5631 C.ar    1  UNL1        0.0869
     21 C          14.7658   73.9082   -4.7767 C.ar    1  UNL1        0.0795
     22 C          14.1782   75.1276   -5.3661 C.ar    1  UNL1        0.2626
     23 H          13.9900   76.0951   -7.1685 H       1  UNL1        0.1734
     24 O          21.0500   71.9408   -4.2627 O.3     1  UNL1       -0.2703
     25 P          22.5402   72.0764   -3.6517 P.3     1  UNL1        0.2208
     26 O          23.3177   72.9589   -4.7621 O.3     1  UNL1       -0.4371
     27 O          23.1967   70.7639   -3.3320 O.2     1  UNL1       -0.5170
     28 O          22.3752   73.0648   -2.3869 O.3     1  UNL1       -0.2858
     29 O          21.4153   71.6233   -0.7744 O.3     1  UNL1       -0.3226
     30 O          22.2722   75.0072    1.4826 O.3     1  UNL1       -0.3794
     31 O          21.1826   75.2597   -1.2109 O.3     1  UNL1       -0.3775
     32 O          21.4170   72.4283    1.9807 O.3     1  UNL1       -0.3792
     33 C          22.4263   74.0185    0.4682 C.3     1  UNL1        0.1718
     34 C          21.2249   74.0369   -0.4829 C.3     1  UNL1        0.1968
     35 C          22.5487   72.6437    1.1311 C.3     1  UNL1        0.1723
     36 C          21.2977   72.8674   -1.4726 C.3     1  UNL1        0.2706
     37 C          22.5718   71.5570    0.0584 C.3     1  UNL1        0.1830
     38 H          23.0521   74.9578    2.0613 H       1  UNL1        0.2105
     39 H          20.4138   75.2213   -1.8045 H       1  UNL1        0.2106
     40 H          20.6415   72.2487    1.4225 H       1  UNL1        0.2106
     41 O          23.7745   69.8854    1.1824 O.co2   1  UNL1       -0.5466
     42 O          21.5916   69.4443    0.6951 O.co2   1  UNL1       -0.5466
     43 C          22.5601   70.1897    0.6644 C.2     1  UNL1        0.0799
@<TRIPOS>UNITY_ATOM_ATTR
41 1
charge -1
@<TRIPOS>BOND
     1     1     4    1
     2     1    24    1
     3     1     2    1
     4     1     3    2
     5    25    28    1
     6    25    24    1
     7    25    26    1
     8    25    27    2
     9     6    11    1
    10     6    12    1
    11    29    36    1
    12    29    37    1
    13     7     9    1
    14     7    13    1
    15     8    10    1
    16     8    14    1
    17     4     5    1
    18    28    36    1
    19    30    33    1
    20    30    38    1
    21    31    34    1
    22    31    39    1
    23    32    35    1
    24    32    40    1
    25    41    43   ar
    26    15    19    2
    27    42    43   ar
    28    16    22    2
    29    17    12    1
    30    17    19   ar
    31    17    20   ar
    32    18    19   ar
    33    18    22   ar
    34    18    23    1
    35     9    10    1
    36     9    11    1
    37    10    12    1
    38    11     5    1
    39    33    34    1
    40    33    35    1
    41    34    36    1
    42    35    37    1
    43    37    43    1
    44    20    21   ar
    45    21    22   ar
@<TRIPOS>MOLECULE
UDP-glaA
 43 45 0 0 0
SMALL
GASTEIGER

@<TRIPOS>ATOM
      1 P          21.6184   72.2433   -1.3798 P.3     1  UNL1        0.2189
      2 O          22.1071   70.7680   -0.9305 O.3     1  UNL1       -0.4371
      3 O          20.3831   72.7393   -0.6868 O.2     1  UNL1       -0.5170
      4 O          21.5308   72.1507   -2.9920 O.3     1  UNL1       -0.3112
      5 C          20.7027   71.1556   -3.5694 C.3     1  UNL1        0.1811
      6 O          18.8018   72.0988   -4.6969 O.3     1  UNL1       -0.3308
      7 O          17.1493   70.9529   -2.4726 O.3     1  UNL1       -0.3794
      8 O          16.7669   69.1542   -4.4861 O.3     1  UNL1       -0.3779
      9 C          18.3142   70.4176   -3.1005 C.3     1  UNL1        0.1713
     10 C          17.9729   69.8898   -4.4779 C.3     1  UNL1        0.1895
     11 C          19.2471   71.5768   -3.4255 C.3     1  UNL1        0.1764
     12 C          17.8822   71.1688   -5.2927 C.3     1  UNL1        0.2383
     13 H          17.4235   71.3132   -1.6121 H       1  UNL1        0.2105
     14 H          16.8693   68.4173   -3.8595 H       1  UNL1        0.2106
     15 O          16.0820   70.3696   -7.3165 O.2     1  UNL1       -0.2464
     16 O          19.3823   70.4351  -10.5324 O.2     1  UNL1       -0.2670
     17 N          18.2437   70.9700   -6.6672 N.ar    1  UNL1       -0.2551
     18 N          17.7267   70.4022   -8.9164 N.ar    1  UNL1       -0.2743
     19 C          17.2638   70.5672   -7.6043 C.ar    1  UNL1        0.3323
     20 C          19.5574   71.1738   -7.0748 C.ar    1  UNL1        0.0869
     21 C          19.9830   71.0127   -8.3297 C.ar    1  UNL1        0.0795
     22 C          19.0229   70.5925   -9.3696 C.ar    1  UNL1        0.2626
     23 H          17.0396   70.1123   -9.6071 H       1  UNL1        0.1734
     24 O          22.9356   73.1502   -1.1392 O.3     1  UNL1       -0.2703
     25 P          23.1988   74.3939   -0.1410 P.3     1  UNL1        0.2208
     26 O          22.2082   75.5403   -0.7073 O.3     1  UNL1       -0.4371
     27 O          24.6382   74.8112   -0.0431 O.2     1  UNL1       -0.5170
     28 O          22.5395   73.9401    1.2602 O.3     1  UNL1       -0.2858
     29 O          21.1539   75.5105    2.3618 O.3     1  UNL1       -0.3226
     30 O          21.8149   72.6900    5.3430 O.3     1  UNL1       -0.3794
     31 O          23.9832   73.5125    3.5744 O.3     1  UNL1       -0.3775
     32 O          20.2072   74.9104    5.0042 O.3     1  UNL1       -0.3792
     33 C          21.6157   73.2068    4.0302 C.3     1  UNL1        0.1718
     34 C          22.7342   74.1894    3.6671 C.3     1  UNL1        0.1968
     35 C          20.2590   73.9147    3.9773 C.3     1  UNL1        0.1723
     36 C          22.4382   74.8793    2.3297 C.3     1  UNL1        0.2706
     37 C          20.0889   74.5974    2.6219 C.3     1  UNL1        0.1830
     38 H          21.0843   72.0764    5.5307 H       1  UNL1        0.2105
     39 H          24.6566   74.1710    3.3341 H       1  UNL1        0.2106
     40 H          20.7684   75.6583    4.7380 H       1  UNL1        0.2106
     41 O          17.8318   74.7830    3.2341 O.co2   1  UNL1       -0.5466
     42 O          18.7208   76.4923    2.0155 O.co2   1  UNL1       -0.5466
     43 C          18.8340   75.4097    2.5720 C.2     1  UNL1        0.0799
@<TRIPOS>UNITY_ATOM_ATTR
41 1
charge -1
@<TRIPOS>BOND
     1     1     4    1
     2     1    24    1
     3     1     2    1
     4     1     3    2
     5    25    28    1
     6    25    24    1
     7    25    26    1
     8    25    27    2
     9     6    11    1
    10     6    12    1
    11    29    36    1
    12    29    37    1
    13     7     9    1
    14     7    13    1
    15     8    10    1
    16     8    14    1
    17     4     5    1
    18    28    36    1
    19    30    33    1
    20    30    38    1
    21    31    34    1
    22    31    39    1
    23    32    35    1
    24    32    40    1
    25    41    43   ar
    26    15    19    2
    27    42    43   ar
    28    16    22    2
    29    17    12    1
    30    17    19   ar
    31    17    20   ar
    32    18    19   ar
    33    18    22   ar
    34    18    23    1
    35     9    10    1
    36     9    11    1
    37    10    12    1
    38    11     5    1
    39    33    34    1
    40    33    35    1
    41    34    36    1
    42    35    37    1
    43    37    43    1
    44    20    21   ar
    45    21    22   ar
@<TRIPOS>MOLECULE
UDP-glaA
 43 45 0 0 0
SMALL
GASTEIGER

@<TRIPOS>ATOM
      1 P          21.9187   73.8364   -6.0803 P.3     1  UNL1        0.2189
      2 O          22.3762   75.1991   -6.8227 O.3     1  UNL1       -0.4371
      3 O          22.7722   72.6378   -6.3752 O.2     1  UNL1       -0.5170
      4 O          20.3525   73.6940   -6.4575 O.3     1  UNL1       -0.3112
      5 C          19.8462   74.4495   -7.5448 C.3     1  UNL1        0.1811
      6 O          19.5647   72.1463   -8.1694 O.3     1  UNL1       -0.3308
      7 O          17.8363   73.1572  -10.4015 O.3     1  UNL1       -0.3794
      8 O          16.0050   72.3178   -8.5636 O.3     1  UNL1       -0.3779
      9 C          17.9731   73.6525   -9.0697 C.3     1  UNL1        0.1713
     10 C          17.2704   72.7336   -8.0928 C.3     1  UNL1        0.1895
     11 C          19.4316   73.4990   -8.6589 C.3     1  UNL1        0.1764
     12 C          18.2565   71.5838   -7.9756 C.3     1  UNL1        0.2383
     13 H          18.3336   73.7548  -10.9854 H       1  UNL1        0.2105
     14 H          15.4723   73.1173   -8.7159 H       1  UNL1        0.2106
     15 O          16.0749   70.0583   -7.0328 O.2     1  UNL1       -0.2464
     16 O          18.1770   69.1926   -3.0241 O.2     1  UNL1       -0.2670
     17 N          18.2071   70.9481   -6.6901 N.ar    1  UNL1       -0.2551
     18 N          17.1229   69.6287   -5.0370 N.ar    1  UNL1       -0.2743
     19 C          17.0640   70.2053   -6.3126 C.ar    1  UNL1        0.3323
     20 C          19.2836   71.0639   -5.8177 C.ar    1  UNL1        0.0869
     21 C          19.3247   70.5078   -4.6049 C.ar    1  UNL1        0.0795
     22 C          18.1709   69.7163   -4.1339 C.ar    1  UNL1        0.2626
     23 H          16.3118   69.0905   -4.7442 H       1  UNL1        0.1734
     24 O          21.8792   74.2682   -4.5224 O.3     1  UNL1       -0.2703
     25 P          23.0357   74.2709   -3.3932 P.3     1  UNL1        0.2208
     26 O          23.0771   75.8133   -2.9081 O.3     1  UNL1       -0.4371
     27 O          24.3569   73.7332   -3.8634 O.2     1  UNL1       -0.5170
     28 O          22.3941   73.4685   -2.1488 O.3     1  UNL1       -0.2858
     29 O          23.0177   72.5226   -0.0714 O.3     1  UNL1       -0.3226
     30 O          21.0112   69.3721   -1.8957 O.3     1  UNL1       -0.3794
     31 O          22.8242   71.0623   -3.4326 O.3     1  UNL1       -0.3775
     32 O          22.0493   69.9073    0.6075 O.3     1  UNL1       -0.3792
     33 C          21.3263   70.7180   -1.5500 C.3     1  UNL1        0.1718
     34 C          22.7446   71.0703   -2.0112 C.3     1  UNL1        0.1968
     35 C          21.2142   70.8785   -0.0314 C.3     1  UNL1        0.1723
     36 C          23.1557   72.4546   -1.4945 C.3     1  UNL1        0.2706
     37 C          21.6851   72.2737    0.3733 C.3     1  UNL1        0.1830
     38 H          20.1080   69.1927   -1.5832 H       1  UNL1        0.2105
     39 H          23.7347   71.2994   -3.6768 H       1  UNL1        0.2106
     40 H          22.9764   70.1807    0.5035 H       1  UNL1        0.2106
     41 O          22.5681   73.4208    2.2195 O.co2   1  UNL1       -0.5466
     42 O          21.0617   71.7648    2.6498 O.co2   1  UNL1       -0.5466
     43 C          21.7154   72.4311    1.8604 C.2     1  UNL1        0.0799
@<TRIPOS>UNITY_ATOM_ATTR
41 1
charge -1
@<TRIPOS>BOND
     1     1     4    1
     2     1    24    1
     3     1     2    1
     4     1     3    2
     5    25    28    1
     6    25    24    1
     7    25    26    1
     8    25    27    2
     9     6    11    1
    10     6    12    1
    11    29    36    1
    12    29    37    1
    13     7     9    1
    14     7    13    1
    15     8    10    1
    16     8    14    1
    17     4     5    1
    18    28    36    1
    19    30    33    1
    20    30    38    1
    21    31    34    1
    22    31    39    1
    23    32    35    1
    24    32    40    1
    25    41    43   ar
    26    15    19    2
    27    42    43   ar
    28    16    22    2
    29    17    12    1
    30    17    19   ar
    31    17    20   ar
    32    18    19   ar
    33    18    22   ar
    34    18    23    1
    35     9    10    1
    36     9    11    1
    37    10    12    1
    38    11     5    1
    39    33    34    1
    40    33    35    1
    41    34    36    1
    42    35    37    1
    43    37    43    1
    44    20    21   ar
    45    21    22   ar
@<TRIPOS>MOLECULE
UDP-glaA
 43 45 0 0 0
SMALL
GASTEIGER

@<TRIPOS>ATOM
      1 P          22.6791   73.4728   -4.2394 P.3     1  UNL1        0.2189
      2 O          22.8200   74.4234   -5.5409 O.3     1  UNL1       -0.4371
      3 O          23.5224   72.2317   -4.2677 O.2     1  UNL1       -0.5170
      4 O          21.0853   73.2365   -4.1000 O.3     1  UNL1       -0.3112
      5 C          20.6223   71.9570   -3.7029 C.3     1  UNL1        0.1811
      6 O          18.5114   72.3035   -4.7977 O.3     1  UNL1       -0.3308
      7 O          17.2704   70.9609   -2.4210 O.3     1  UNL1       -0.3794
      8 O          17.2940   68.9703   -4.2845 O.3     1  UNL1       -0.3779
      9 C          18.5132   70.6856   -3.0671 C.3     1  UNL1        0.1713
     10 C          18.2746   69.9820   -4.3864 C.3     1  UNL1        0.1895
     11 C          19.1126   72.0115   -3.5169 C.3     1  UNL1        0.1764
     12 C          17.8390   71.1293   -5.2819 C.3     1  UNL1        0.2383
     13 H          17.4707   71.4452   -1.6019 H       1  UNL1        0.2105
     14 H          17.5982   68.3342   -3.6144 H       1  UNL1        0.2106
     15 O          16.0055   70.4683   -7.3256 O.2     1  UNL1       -0.2464
     16 O          19.3275   70.3436  -10.5174 O.2     1  UNL1       -0.2670
     17 N          18.1971   70.9190   -6.6556 N.ar    1  UNL1       -0.2551
     18 N          17.6610   70.4061   -8.9135 N.ar    1  UNL1       -0.2743
     19 C          17.1999   70.5899   -7.6033 C.ar    1  UNL1        0.3323
     20 C          19.5245   71.0390   -7.0521 C.ar    1  UNL1        0.0869
     21 C          19.9481   70.8611   -8.3054 C.ar    1  UNL1        0.0795
     22 C          18.9704   70.5143   -9.3558 C.ar    1  UNL1        0.2626
     23 H          16.9616   70.1683   -9.6117 H       1  UNL1        0.1734
     24 O          23.0050   74.4807   -3.0175 O.3     1  UNL1       -0.2703
     25 P          22.0481   75.1057   -1.8746 P.3     1  UNL1        0.2208
     26 O          20.6425   75.3223   -2.6452 O.3     1  UNL1       -0.4371
     27 O          22.5948   76.3434   -1.2226 O.2     1  UNL1       -0.5170
     28 O          21.7725   73.8830   -0.8583 O.3     1  UNL1       -0.2858
     29 O          22.7945   73.8283    1.2752 O.3     1  UNL1       -0.3226
     30 O          21.6898   69.8573    0.7366 O.3     1  UNL1       -0.3794
     31 O          22.8054   71.3978   -1.4743 O.3     1  UNL1       -0.3775
     32 O          22.6969   71.3967    2.7972 O.3     1  UNL1       -0.3792
     33 C          21.6147   71.2770    0.6409 C.3     1  UNL1        0.1718
     34 C          22.8280   71.8265   -0.1169 C.3     1  UNL1        0.1968
     35 C          21.5681   71.8668    2.0532 C.3     1  UNL1        0.1723
     36 C          22.8452   73.3596   -0.0763 C.3     1  UNL1        0.2706
     37 C          21.6309   73.3906    1.9753 C.3     1  UNL1        0.1830
     38 H          20.9051   69.5543    1.2245 H       1  UNL1        0.2105
     39 H          23.5847   71.7767   -1.9147 H       1  UNL1        0.2106
     40 H          23.4913   71.8568    2.4769 H       1  UNL1        0.2106
     41 O          21.0111   73.2792    4.2352 O.co2   1  UNL1       -0.5466
     42 O          22.3430   75.0200    3.6086 O.co2   1  UNL1       -0.5466
     43 C          21.7186   74.0050    3.3361 C.2     1  UNL1        0.0799
@<TRIPOS>UNITY_ATOM_ATTR
41 1
charge -1
@<TRIPOS>BOND
     1     1     4    1
     2     1    24    1
     3     1     2    1
     4     1     3    2
     5    25    28    1
     6    25    24    1
     7    25    26    1
     8    25    27    2
     9     6    11    1
    10     6    12    1
    11    29    36    1
    12    29    37    1
    13     7     9    1
    14     7    13    1
    15     8    10    1
    16     8    14    1
    17     4     5    1
    18    28    36    1
    19    30    33    1
    20    30    38    1
    21    31    34    1
    22    31    39    1
    23    32    35    1
    24    32    40    1
    25    41    43   ar
    26    15    19    2
    27    42    43   ar
    28    16    22    2
    29    17    12    1
    30    17    19   ar
    31    17    20   ar
    32    18    19   ar
    33    18    22   ar
    34    18    23    1
    35     9    10    1
    36     9    11    1
    37    10    12    1
    38    11     5    1
    39    33    34    1
    40    33    35    1
    41    34    36    1
    42    35    37    1
    43    37    43    1
    44    20    21   ar
    45    21    22   ar
@<TRIPOS>MOLECULE
UDP-glaA
 43 45 0 0 0
SMALL
GASTEIGER

@<TRIPOS>ATOM
      1 P          19.9822   71.4534   -3.8480 P.3     1  UNL1        0.2189
      2 O          20.5198   70.0203   -3.3242 O.3     1  UNL1       -0.4371
      3 O          18.9938   72.1281   -2.9424 O.2     1  UNL1       -0.5170
      4 O          19.4660   71.1506   -5.3505 O.3     1  UNL1       -0.3112
      5 C          18.2697   70.4093   -5.5193 C.3     1  UNL1        0.1811
      6 O          17.9000   72.4697   -6.6992 O.3     1  UNL1       -0.3308
      7 O          16.1145   70.8904   -8.5183 O.3     1  UNL1       -0.3794
      8 O          18.4110   71.1005   -9.9734 O.3     1  UNL1       -0.3779
      9 C          17.3298   70.4972   -7.8811 C.3     1  UNL1        0.1713
     10 C          18.5150   71.1452   -8.5653 C.3     1  UNL1        0.1895
     11 C          17.3667   71.1417   -6.5016 C.3     1  UNL1        0.1764
     12 C          18.4583   72.5622   -8.0202 C.3     1  UNL1        0.2383
     13 H          15.3830   70.4836   -8.0232 H       1  UNL1        0.2105
     14 H          18.3432   70.1654  -10.2323 H       1  UNL1        0.2106
     15 O          18.9492   75.3248   -8.3397 O.2     1  UNL1       -0.2464
     16 O          23.4785   74.7820   -7.6843 O.2     1  UNL1       -0.2670
     17 N          19.7557   73.1700   -7.9376 N.ar    1  UNL1       -0.2551
     18 N          21.2044   75.0526   -8.0136 N.ar    1  UNL1       -0.2743
     19 C          19.8941   74.5666   -8.1141 C.ar    1  UNL1        0.3323
     20 C          20.8744   72.3841   -7.6841 C.ar    1  UNL1        0.0869
     21 C          22.1170   72.8627   -7.5908 C.ar    1  UNL1        0.0795
     22 C          22.3483   74.3105   -7.7635 C.ar    1  UNL1        0.2626
     23 H          21.3279   76.0538   -8.1377 H       1  UNL1        0.1734
     24 O          21.3473   72.2848   -4.0936 O.3     1  UNL1       -0.2703
     25 P          22.7997   72.1690   -3.3939 P.3     1  UNL1        0.2208
     26 O          23.7547   73.0283   -4.3767 O.3     1  UNL1       -0.4371
     27 O          23.2599   70.7586   -3.1596 O.2     1  UNL1       -0.5170
     28 O          22.6813   73.0626   -2.0555 O.3     1  UNL1       -0.2858
     29 O          21.6213   71.6819   -0.4525 O.3     1  UNL1       -0.3226
     30 O          22.3759   75.1350    1.7351 O.3     1  UNL1       -0.3794
     31 O          21.4413   75.3027   -1.0225 O.3     1  UNL1       -0.3775
     32 O          21.4745   72.5794    2.2699 O.3     1  UNL1       -0.3792
     33 C          22.5792   74.1118    0.7645 C.3     1  UNL1        0.1718
     34 C          21.4333   74.1050   -0.2529 C.3     1  UNL1        0.1968
     35 C          22.6537   72.7595    1.4788 C.3     1  UNL1        0.1723
     36 C          21.5526   72.9023   -1.1973 C.3     1  UNL1        0.2706
     37 C          22.7287   71.6371    0.4460 C.3     1  UNL1        0.1830
     38 H          23.1217   75.1008    2.3582 H       1  UNL1        0.2105
     39 H          20.7068   75.2487   -1.6568 H       1  UNL1        0.2106
     40 H          20.7302   72.3855    1.6753 H       1  UNL1        0.2106
     41 O          21.6991   69.5311    0.5383 O.co2   1  UNL1       -0.5466
     42 O          23.4028   69.9189    2.0027 O.co2   1  UNL1       -0.5466
     43 C          22.6725   70.2911    1.0956 C.2     1  UNL1        0.0799
@<TRIPOS>UNITY_ATOM_ATTR
41 1
charge -1
@<TRIPOS>BOND
     1     1     4    1
     2     1    24    1
     3     1     2    1
     4     1     3    2
     5    25    28    1
     6    25    24    1
     7    25    26    1
     8    25    27    2
     9     6    11    1
    10     6    12    1
    11    29    36    1
    12    29    37    1
    13     7     9    1
    14     7    13    1
    15     8    10    1
    16     8    14    1
    17     4     5    1
    18    28    36    1
    19    30    33    1
    20    30    38    1
    21    31    34    1
    22    31    39    1
    23    32    35    1
    24    32    40    1
    25    41    43   ar
    26    15    19    2
    27    42    43   ar
    28    16    22    2
    29    17    12    1
    30    17    19   ar
    31    17    20   ar
    32    18    19   ar
    33    18    22   ar
    34    18    23    1
    35     9    10    1
    36     9    11    1
    37    10    12    1
    38    11     5    1
    39    33    34    1
    40    33    35    1
    41    34    36    1
    42    35    37    1
    43    37    43    1
    44    20    21   ar
    45    21    22   ar
@<TRIPOS>MOLECULE
UDP-glaA
 43 45 0 0 0
SMALL
GASTEIGER

@<TRIPOS>ATOM
      1 P          21.9841   73.3272   -5.1157 P.3     1  UNL1        0.2189
      2 O          20.7555   74.3061   -5.5027 O.3     1  UNL1       -0.4371
      3 O          22.7742   72.8115   -6.2827 O.2     1  UNL1       -0.5170
      4 O          21.3039   72.2014   -4.1748 O.3     1  UNL1       -0.3112
      5 C          20.3214   71.3499   -4.7395 C.3     1  UNL1        0.1811
      6 O          18.1247   72.0637   -4.0768 O.3     1  UNL1       -0.3308
      7 O          17.9732   69.5132   -2.5073 O.3     1  UNL1       -0.3794
      8 O          16.5177   68.9273   -4.7376 O.3     1  UNL1       -0.3779
      9 C          18.5876   69.7604   -3.7718 C.3     1  UNL1        0.1713
     10 C          17.5331   69.9031   -4.8491 C.3     1  UNL1        0.1895
     11 C          19.1954   71.1563   -3.7339 C.3     1  UNL1        0.1764
     12 C          17.0192   71.3114   -4.6032 C.3     1  UNL1        0.2383
     13 H          18.6829   69.4682   -1.8441 H       1  UNL1        0.2105
     14 H          16.9429   68.0544   -4.7967 H       1  UNL1        0.2106
     15 O          17.6665   70.4473   -7.2127 O.2     1  UNL1       -0.2464
     16 O          15.1800   73.8141   -9.1416 O.2     1  UNL1       -0.2670
     17 N          16.5545   71.9430   -5.8051 N.ar    1  UNL1       -0.2551
     18 N          16.4283   72.1247   -8.1715 N.ar    1  UNL1       -0.2743
     19 C          16.9385   71.4308   -7.0664 C.ar    1  UNL1        0.3323
     20 C          15.7273   73.0580   -5.7269 C.ar    1  UNL1        0.0869
     21 C          15.2487   73.7082   -6.7899 C.ar    1  UNL1        0.0795
     22 C          15.6030   73.2382   -8.1439 C.ar    1  UNL1        0.2626
     23 H          16.6919   71.7745   -9.0886 H       1  UNL1        0.1734
     24 O          22.8358   74.2130   -4.0644 O.3     1  UNL1       -0.2703
     25 P          22.3815   74.9965   -2.7257 P.3     1  UNL1        0.2208
     26 O          20.7820   75.1498   -2.9101 O.3     1  UNL1       -0.4371
     27 O          23.1059   76.2917   -2.4942 O.2     1  UNL1       -0.5170
     28 O          22.5541   73.9151   -1.5404 O.3     1  UNL1       -0.2858
     29 O          21.4549   72.0285   -0.6284 O.3     1  UNL1       -0.3226
     30 O          22.1368   74.3559    2.7477 O.3     1  UNL1       -0.3794
     31 O          21.2784   75.5879    0.2475 O.3     1  UNL1       -0.3775
     32 O          21.2296   71.8000    2.2239 O.3     1  UNL1       -0.3792
     33 C          22.3704   73.7881    1.4619 C.3     1  UNL1        0.1718
     34 C          21.2532   74.1855    0.4912 C.3     1  UNL1        0.1968
     35 C          22.4297   72.2641    1.5968 C.3     1  UNL1        0.1723
     36 C          21.4027   73.4429   -0.8424 C.3     1  UNL1        0.2706
     37 C          22.5371   71.6301    0.2116 C.3     1  UNL1        0.1830
     38 H          22.8652   74.0767    3.3284 H       1  UNL1        0.2105
     39 H          20.5619   75.7900   -0.3775 H       1  UNL1        0.2106
     40 H          20.5028   71.8578    1.5809 H       1  UNL1        0.2106
     41 O          23.7034   69.5949    0.1702 O.co2   1  UNL1       -0.5466
     42 O          21.4414   69.4900    0.4340 O.co2   1  UNL1       -0.5466
     43 C          22.4675   70.1379    0.2860 C.2     1  UNL1        0.0799
@<TRIPOS>UNITY_ATOM_ATTR
41 1
charge -1
@<TRIPOS>BOND
     1     1     4    1
     2     1    24    1
     3     1     2    1
     4     1     3    2
     5    25    28    1
     6    25    24    1
     7    25    26    1
     8    25    27    2
     9     6    11    1
    10     6    12    1
    11    29    36    1
    12    29    37    1
    13     7     9    1
    14     7    13    1
    15     8    10    1
    16     8    14    1
    17     4     5    1
    18    28    36    1
    19    30    33    1
    20    30    38    1
    21    31    34    1
    22    31    39    1
    23    32    35    1
    24    32    40    1
    25    41    43   ar
    26    15    19    2
    27    42    43   ar
    28    16    22    2
    29    17    12    1
    30    17    19   ar
    31    17    20   ar
    32    18    19   ar
    33    18    22   ar
    34    18    23    1
    35     9    10    1
    36     9    11    1
    37    10    12    1
    38    11     5    1
    39    33    34    1
    40    33    35    1
    41    34    36    1
    42    35    37    1
    43    37    43    1
    44    20    21   ar
    45    21    22   ar
@<TRIPOS>MOLECULE
UDP-glaA
 43 45 0 0 0
SMALL
GASTEIGER

@<TRIPOS>ATOM
      1 P          17.7844   72.9317   -2.2843 P.3     1  UNL1        0.2189
      2 O          17.8131   74.5138   -2.6213 O.3     1  UNL1       -0.4371
      3 O          16.4927   72.4306   -1.7077 O.2     1  UNL1       -0.5170
      4 O          19.0979   72.7045   -1.3684 O.3     1  UNL1       -0.3112
      5 C          19.6935   73.8307   -0.7470 C.3     1  UNL1        0.1811
      6 O          21.9296   74.3764   -0.0568 O.3     1  UNL1       -0.3308
      7 O          22.8468   72.8467   -2.4672 O.3     1  UNL1       -0.3794
      8 O          23.2397   71.0613   -0.4438 O.3     1  UNL1       -0.3779
      9 C          21.7427   72.5887   -1.6000 C.3     1  UNL1        0.1713
     10 C          22.2313   72.0366   -0.2775 C.3     1  UNL1        0.1895
     11 C          21.1477   73.9282   -1.1859 C.3     1  UNL1        0.1764
     12 C          22.7383   73.2879    0.4190 C.3     1  UNL1        0.2383
     13 H          22.4893   73.2345   -3.2841 H       1  UNL1        0.2105
     14 H          22.8688   70.3470   -0.9900 H       1  UNL1        0.2106
     15 O          21.1252   71.4127    1.7818 O.2     1  UNL1       -0.2464
     16 O          22.3575   73.0718    5.9009 O.2     1  UNL1       -0.2670
     17 N          22.6192   73.2069    1.8468 N.ar    1  UNL1       -0.2551
     18 N          21.7395   72.2405    3.8320 N.ar    1  UNL1       -0.2743
     19 C          21.7812   72.2288    2.4316 C.ar    1  UNL1        0.3323
     20 C          23.3282   74.0907    2.6528 C.ar    1  UNL1        0.0869
     21 C          23.2782   74.0887    3.9867 C.ar    1  UNL1        0.0795
     22 C          22.4260   73.0997    4.6760 C.ar    1  UNL1        0.2626
     23 H          21.1430   71.5463    4.2742 H       1  UNL1        0.1734
     24 O          18.2016   72.2537   -3.6919 O.3     1  UNL1       -0.2703
     25 P          17.4991   71.0799   -4.5528 P.3     1  UNL1        0.2208
     26 O          16.0849   71.7339   -4.9870 O.3     1  UNL1       -0.4371
     27 O          17.3798   69.7706   -3.8268 O.2     1  UNL1       -0.5170
     28 O          18.3530   71.0086   -5.9202 O.3     1  UNL1       -0.2858
     29 O          19.5748   72.7789   -6.9063 O.3     1  UNL1       -0.3226
     30 O          18.6369   70.4261  -10.2023 O.3     1  UNL1       -0.3794
     31 O          16.6662   70.8877   -8.1026 O.3     1  UNL1       -0.3775
     32 O          20.2291   72.6259   -9.6968 O.3     1  UNL1       -0.3792
     33 C          18.9728   70.7426   -8.8543 C.3     1  UNL1        0.1718
     34 C          17.8834   71.6162   -8.2231 C.3     1  UNL1        0.1968
     35 C          20.3128   71.4834   -8.8386 C.3     1  UNL1        0.1723
     36 C          18.3148   72.1036   -6.8343 C.3     1  UNL1        0.2706
     37 C          20.6213   71.9562   -7.4197 C.3     1  UNL1        0.1830
     38 H          19.3535   69.8757  -10.5617 H       1  UNL1        0.2105
     39 H          16.0115   71.4765   -7.6908 H       1  UNL1        0.2106
     40 H          19.6870   73.3030   -9.2577 H       1  UNL1        0.2106
     41 O          22.4727   72.6862   -6.1775 O.co2   1  UNL1       -0.5466
     42 O          22.2658   73.4885   -8.3013 O.co2   1  UNL1       -0.5466
     43 C          21.8577   72.7968   -7.3797 C.2     1  UNL1        0.0799
@<TRIPOS>UNITY_ATOM_ATTR
41 1
charge -1
@<TRIPOS>BOND
     1     1     4    1
     2     1    24    1
     3     1     2    1
     4     1     3    2
     5    25    28    1
     6    25    24    1
     7    25    26    1
     8    25    27    2
     9     6    11    1
    10     6    12    1
    11    29    36    1
    12    29    37    1
    13     7     9    1
    14     7    13    1
    15     8    10    1
    16     8    14    1
    17     4     5    1
    18    28    36    1
    19    30    33    1
    20    30    38    1
    21    31    34    1
    22    31    39    1
    23    32    35    1
    24    32    40    1
    25    41    43   ar
    26    15    19    2
    27    42    43   ar
    28    16    22    2
    29    17    12    1
    30    17    19   ar
    31    17    20   ar
    32    18    19   ar
    33    18    22   ar
    34    18    23    1
    35     9    10    1
    36     9    11    1
    37    10    12    1
    38    11     5    1
    39    33    34    1
    40    33    35    1
    41    34    36    1
    42    35    37    1
    43    37    43    1
    44    20    21   ar
    45    21    22   ar
@<TRIPOS>MOLECULE
UDP-glaA
 43 45 0 0 0
SMALL
GASTEIGER

@<TRIPOS>ATOM
      1 P          21.5036   72.7034   -4.8333 P.3     1  UNL1        0.2189
      2 O          21.0373   73.9335   -3.8916 O.3     1  UNL1       -0.4371
      3 O          22.9542   72.7151   -5.2177 O.2     1  UNL1       -0.5170
      4 O          20.4509   72.7314   -6.0607 O.3     1  UNL1       -0.3112
      5 C          20.9541   72.8213   -7.3828 C.3     1  UNL1        0.1811
      6 O          19.3331   71.0490   -7.4575 O.3     1  UNL1       -0.3308
      7 O          18.8276   71.8833  -10.2929 O.3     1  UNL1       -0.3794
      8 O          16.7329   73.0091   -8.9585 O.3     1  UNL1       -0.3779
      9 C          19.1349   72.6892   -9.1554 C.3     1  UNL1        0.1713
     10 C          17.9310   72.7903   -8.2428 C.3     1  UNL1        0.1895
     11 C          20.1268   71.9224   -8.2907 C.3     1  UNL1        0.1764
     12 C          17.9537   71.4437   -7.5398 C.3     1  UNL1        0.2383
     13 H          19.6374   71.8150  -10.8270 H       1  UNL1        0.2105
     14 H          16.8409   73.8324   -9.4652 H       1  UNL1        0.2106
     15 O          15.7618   73.0615   -6.7955 O.2     1  UNL1       -0.2464
     16 O          15.9400   71.6101   -2.4251 O.2     1  UNL1       -0.2670
     17 N          17.4062   71.5077   -6.2148 N.ar    1  UNL1       -0.2551
     18 N          15.8523   72.3381   -4.6196 N.ar    1  UNL1       -0.2743
     19 C          16.3047   72.3532   -5.9456 C.ar    1  UNL1        0.3323
     20 C          17.9603   70.7381   -5.1980 C.ar    1  UNL1        0.0869
     21 C          17.5173   70.7343   -3.9388 C.ar    1  UNL1        0.0795
     22 C          16.3710   71.5902   -3.5739 C.ar    1  UNL1        0.2626
     23 H          15.0616   72.9388   -4.4028 H       1  UNL1        0.1734
     24 O          21.0413   71.4046   -3.9880 O.3     1  UNL1       -0.2703
     25 P          21.7648   70.6146   -2.7776 P.3     1  UNL1        0.2208
     26 O          23.3235   70.6207   -3.2098 O.3     1  UNL1       -0.4371
     27 O          21.2011   69.2486   -2.5096 O.2     1  UNL1       -0.5170
     28 O          21.6849   71.6267   -1.5233 O.3     1  UNL1       -0.2858
     29 O          23.3014   72.9885   -0.4594 O.3     1  UNL1       -0.3226
     30 O          20.9771   71.7281    2.7482 O.3     1  UNL1       -0.3794
     31 O          21.6815   69.8740    0.6100 O.3     1  UNL1       -0.3775
     32 O          23.0188   73.5438    2.3425 O.3     1  UNL1       -0.3792
     33 C          21.2901   72.1323    1.4182 C.3     1  UNL1        0.1718
     34 C          22.2823   71.1533    0.7816 C.3     1  UNL1        0.1968
     35 C          21.8939   73.5388    1.4572 C.3     1  UNL1        0.1723
     36 C          22.7566   71.6705   -0.5822 C.3     1  UNL1        0.2706
     37 C          22.3668   73.9333    0.0598 C.3     1  UNL1        0.1830
     38 H          20.3498   72.3761    3.1118 H       1  UNL1        0.2105
     39 H          22.3420   69.2928    0.1966 H       1  UNL1        0.2106
     40 H          23.7565   73.0842    1.9071 H       1  UNL1        0.2106
     41 O          22.6453   76.0173    1.1006 O.co2   1  UNL1       -0.5466
     42 O          23.9423   75.5865   -0.7240 O.co2   1  UNL1       -0.5466
     43 C          23.0809   75.2474    0.0743 C.2     1  UNL1        0.0799
@<TRIPOS>UNITY_ATOM_ATTR
41 1
charge -1
@<TRIPOS>BOND
     1     1     4    1
     2     1    24    1
     3     1     2    1
     4     1     3    2
     5    25    28    1
     6    25    24    1
     7    25    26    1
     8    25    27    2
     9     6    11    1
    10     6    12    1
    11    29    36    1
    12    29    37    1
    13     7     9    1
    14     7    13    1
    15     8    10    1
    16     8    14    1
    17     4     5    1
    18    28    36    1
    19    30    33    1
    20    30    38    1
    21    31    34    1
    22    31    39    1
    23    32    35    1
    24    32    40    1
    25    41    43   ar
    26    15    19    2
    27    42    43   ar
    28    16    22    2
    29    17    12    1
    30    17    19   ar
    31    17    20   ar
    32    18    19   ar
    33    18    22   ar
    34    18    23    1
    35     9    10    1
    36     9    11    1
    37    10    12    1
    38    11     5    1
    39    33    34    1
    40    33    35    1
    41    34    36    1
    42    35    37    1
    43    37    43    1
    44    20    21   ar
    45    21    22   ar
@<TRIPOS>MOLECULE
UDP-glaA
 43 45 0 0 0
SMALL
GASTEIGER

@<TRIPOS>ATOM
      1 P          22.6632   71.3664   -3.2074 P.3     1  UNL1        0.2189
      2 O          22.9348   72.8159   -3.8725 O.3     1  UNL1       -0.4371
      3 O          23.8272   70.4203   -3.2543 O.2     1  UNL1       -0.5170
      4 O          21.3107   70.8531   -3.9306 O.3     1  UNL1       -0.3112
      5 C          20.2413   71.7688   -4.0955 C.3     1  UNL1        0.1811
      6 O          17.9319   72.1444   -3.5482 O.3     1  UNL1       -0.3308
      7 O          18.0094   69.4664   -2.2014 O.3     1  UNL1       -0.3794
      8 O          16.7920   68.9039   -4.5756 O.3     1  UNL1       -0.3779
      9 C          18.6683   69.8981   -3.3918 C.3     1  UNL1        0.1713
     10 C          17.6774   70.0037   -4.5318 C.3     1  UNL1        0.1895
     11 C          19.0862   71.3497   -3.1973 C.3     1  UNL1        0.1764
     12 C          16.9702   71.3105   -4.2154 C.3     1  UNL1        0.2383
     13 H          18.6738   69.4513   -1.4916 H       1  UNL1        0.2105
     14 H          17.3296   68.0989   -4.6709 H       1  UNL1        0.2106
     15 O          15.0082   73.3417   -4.2286 O.2     1  UNL1       -0.2464
     16 O          15.2714   73.8193   -8.8048 O.2     1  UNL1       -0.2670
     17 N          16.5075   71.9832   -5.3956 N.ar    1  UNL1       -0.2551
     18 N          15.1402   73.5778   -6.5074 N.ar    1  UNL1       -0.2743
     19 C          15.5178   72.9886   -5.2936 C.ar    1  UNL1        0.3323
     20 C          17.0334   71.6447   -6.6375 C.ar    1  UNL1        0.0869
     21 C          16.6633   72.2161   -7.7856 C.ar    1  UNL1        0.0795
     22 C          15.6342   73.2746   -7.7667 C.ar    1  UNL1        0.2626
     23 H          14.4295   74.3029   -6.4584 H       1  UNL1        0.1734
     24 O          22.1587   71.7402   -1.7172 O.3     1  UNL1       -0.2703
     25 P          21.7786   70.7992   -0.4592 P.3     1  UNL1        0.2208
     26 O          23.2183   70.2808    0.0648 O.3     1  UNL1       -0.4371
     27 O          20.8049   69.7023   -0.7825 O.2     1  UNL1       -0.5170
     28 O          21.2740   71.8241    0.6805 O.3     1  UNL1       -0.2858
     29 O          22.9544   73.4778    0.8827 O.3     1  UNL1       -0.3226
     30 O          20.1115   74.7857    3.6189 O.3     1  UNL1       -0.3794
     31 O          20.7515   71.9496    3.3886 O.3     1  UNL1       -0.3775
     32 O          22.4474   75.7756    2.5264 O.3     1  UNL1       -0.3792
     33 C          20.6332   74.1831    2.4378 C.3     1  UNL1        0.1718
     34 C          21.5237   72.9885    2.7959 C.3     1  UNL1        0.1968
     35 C          21.4437   75.2277    1.6654 C.3     1  UNL1        0.1723
     36 C          22.2254   72.4404    1.5471 C.3     1  UNL1        0.2706
     37 C          22.1283   74.5659    0.4715 C.3     1  UNL1        0.1830
     38 H          19.5576   75.5365    3.3450 H       1  UNL1        0.2105
     39 H          21.3542   71.2137    3.5887 H       1  UNL1        0.2106
     40 H          23.1477   75.1119    2.6459 H       1  UNL1        0.2106
     41 O          24.2934   75.4438    0.2583 O.co2   1  UNL1       -0.5466
     42 O          22.6961   76.2688   -1.1434 O.co2   1  UNL1       -0.5466
     43 C          23.0350   75.5208   -0.2378 C.2     1  UNL1        0.0799
@<TRIPOS>UNITY_ATOM_ATTR
41 1
charge -1
@<TRIPOS>BOND
     1     1     4    1
     2     1    24    1
     3     1     2    1
     4     1     3    2
     5    25    28    1
     6    25    24    1
     7    25    26    1
     8    25    27    2
     9     6    11    1
    10     6    12    1
    11    29    36    1
    12    29    37    1
    13     7     9    1
    14     7    13    1
    15     8    10    1
    16     8    14    1
    17     4     5    1
    18    28    36    1
    19    30    33    1
    20    30    38    1
    21    31    34    1
    22    31    39    1
    23    32    35    1
    24    32    40    1
    25    41    43   ar
    26    15    19    2
    27    42    43   ar
    28    16    22    2
    29    17    12    1
    30    17    19   ar
    31    17    20   ar
    32    18    19   ar
    33    18    22   ar
    34    18    23    1
    35     9    10    1
    36     9    11    1
    37    10    12    1
    38    11     5    1
    39    33    34    1
    40    33    35    1
    41    34    36    1
    42    35    37    1
    43    37    43    1
    44    20    21   ar
    45    21    22   ar
